gem5 Simulator System.  http://gem5.org
gem5 is copyrighted software; use the --copyright option for details.

gem5 compiled Sep 22 2017 17:59:46
gem5 started Sep 28 2017 22:55:26
gem5 executing on cisco-VirtualBox, pid 17771
command line: ./build/ARM/gem5.debug --debug-flags=Exec configs/example/se.py -c mytest/test

Global frequency set at 1000000000000 ticks per second
**** REAL SIMULATION ****
      0: system.cpu T0 : @fini+11    :   mov.w   fp, #0           : IntAlu :  D=0x0000000000000000
    500: system.cpu T0 : @_start+3    :   mov.w   lr, #0           : IntAlu :  D=0x0000000000000000
   1000: system.cpu T0 : @_start+7    :   ldr.w   r1, [sp] #4     
   1000: system.cpu T0 : @_start+7.0  :   ldr.w   r1, [sp] #4      : MemRead :  D=0x0000000000000001 A=0xbeffff30
   1500: system.cpu T0 : @_start+7.1  :   addi_uop.w   sp, sp, #4  : IntAlu :  D=0x00000000beffff34
   2000: system.cpu T0 : @_start+11    :   mov   r2, sp             : IntAlu :  D=0x00000000beffff34
   3000: system.cpu T0 : @_start+13    :   str.w   r2, [sp, #-4]!  
   3000: system.cpu T0 : @_start+13.0  :   str.w   r2, [sp, #-4]!   : MemWrite :  D=0x00000000beffff34 A=0xbeffff30
   3500: system.cpu T0 : @_start+13.1  :   subi_uop.w   sp, sp, #4  : IntAlu :  D=0x00000000beffff30
   4500: system.cpu T0 : @_start+17    :   str.w   r0, [sp, #-4]!  
   4500: system.cpu T0 : @_start+17.0  :   str.w   r0, [sp, #-4]!   : MemWrite :  D=0x0000000000000000 A=0xbeffff2c
   5000: system.cpu T0 : @_start+17.1  :   subi_uop.w   sp, sp, #4  : IntAlu :  D=0x00000000beffff2c
   6000: system.cpu T0 : @_start+21    :   ldr.w   r12, [pc, #20]   : MemRead :  D=0x0000000000008e61 A=0x88ac
   7000: system.cpu T0 : @_start+25    :   str.w   r12, [sp, #-4]! 
   7000: system.cpu T0 : @_start+25.0  :   str.w   r12, [sp, #-4]!  : MemWrite :  D=0x0000000000008e61 A=0xbeffff28
   7500: system.cpu T0 : @_start+25.1  :   subi_uop.w   sp, sp, #4  : IntAlu :  D=0x00000000beffff28
   8000: system.cpu T0 : @_start+29    :   ldr   r0, [pc, #16]      : MemRead :  D=0x0000000000008925 A=0x88b0
   8500: system.cpu T0 : @_start+31    :   ldr   r3, [pc, #16]      : MemRead :  D=0x0000000000008df1 A=0x88b4
   9500: system.cpu T0 : @_start+33    :   bl.w                     : IntAlu :  D=0x00000000000088a7
  10000: system.cpu T0 : @main+71    : ldmstm                    
  10000: system.cpu T0 : @main+71.0  :   str_uop   r4, [sp, #20]  : MemWrite :  D=0x0000000000000000 A=0xbeffff14
  10500: system.cpu T0 : @main+71.1  :   str_uop   r5, [sp, #16]  : MemWrite :  D=0x0000000000000000 A=0xbeffff18
  11000: system.cpu T0 : @main+71.2  :   str_uop   r6, [sp, #12]  : MemWrite :  D=0x0000000000000000 A=0xbeffff1c
  11500: system.cpu T0 : @main+71.3  :   str_uop   r7, [sp, #8]   : MemWrite :  D=0x0000000000000000 A=0xbeffff20
  12000: system.cpu T0 : @main+71.4  :   str_uop   lr, [sp, #4]   : MemWrite :  D=0x00000000000088a7 A=0xbeffff24
  12500: system.cpu T0 : @main+71.5  :   subi_uop   sp, sp, #20   : IntAlu :  D=0x00000000beffff14
  13500: system.cpu T0 : @__libc_start_main+1    :   mov.w   r4, #0           : IntAlu :  D=0x0000000000000000
  14000: system.cpu T0 : @__libc_start_main+5    :   sub   sp, sp, #308       : IntAlu :  D=0x00000000befffde0
  14500: system.cpu T0 : @__libc_start_main+7    :   movt.w   r4, r4, #0      : IntAlu :  D=0x0000000000000000
  15000: system.cpu T0 : @__libc_start_main+11    :   mov   r5, r3             : IntAlu :  D=0x0000000000008df1
  15500: system.cpu T0 : @__libc_start_main+13    :   str   r0, [sp, #12]      : MemWrite :  D=0x0000000000008925 A=0xbefffdec
  16000: system.cpu T0 : @__libc_start_main+15    :   mov   lr, r4             : IntAlu :  D=0x0000000000000000
  16500: system.cpu T0 : @__libc_start_main+17    :   str   r1, [sp, #4]       : MemWrite :  D=0x0000000000000001 A=0xbefffde4
  17000: system.cpu T0 : @__libc_start_main+19    :   str   r2, [sp, #8]       : MemWrite :  D=0x00000000beffff34 A=0xbefffde8
  17500: system.cpu T0 : @__libc_start_main+21    :   ldr   r6, [sp, #328]     : MemRead :  D=0x0000000000008e61 A=0xbeffff28
  18000: system.cpu T0 : @__libc_start_main+23    :   ldr   r7, [sp, #332]     : MemRead :  D=0x0000000000000000 A=0xbeffff2c
  18500: system.cpu T0 : @__libc_start_main+25    :   cbz                      : IntAlu : 
  19000: system.cpu T0 : @__libc_start_main+39    :   ldr   r3, [sp, #4]       : MemRead :  D=0x0000000000000001 A=0xbefffde4
  20000: system.cpu T0 : @__libc_start_main+41    :   mov.w   r2, #42312       : IntAlu :  D=0x000000000000a548
  21000: system.cpu T0 : @__libc_start_main+45    :   movt.w   r2, r2, #6      : IntAlu :  D=0x000000000006a548
  22000: system.cpu T0 : @__libc_start_main+49    :   mov.w   r1, #39348       : IntAlu :  D=0x00000000000099b4
  22500: system.cpu T0 : @__libc_start_main+53    :   adds   r4, r3, #1        : IntAlu :  D=0x0000000000000000
  23000: system.cpu T0 : @__libc_start_main+55    :   ldr   r3, [sp, #8]       : MemRead :  D=0x00000000beffff34 A=0xbefffde8
  24000: system.cpu T0 : @__libc_start_main+57    :   movt.w   r1, r1, #6      : IntAlu :  D=0x00000000000699b4
  25000: system.cpu T0 : @__libc_start_main+61    :   add.w   r4, r3, r4, LSL #2 : IntAlu :  D=0x00000000beffff3c
  25500: system.cpu T0 : @__libc_start_main+65    :   str   r4, [r2, #0]       : MemWrite :  D=0x00000000beffff3c A=0x6a548
  26000: system.cpu T0 : @__libc_start_main+67    :   ldr   r2, [sp, #336]     : MemRead :  D=0x00000000beffff34 A=0xbeffff30
  27000: system.cpu T0 : @__libc_start_main+69    :   mov.w   r3, #36824       : IntAlu :  D=0x0000000000008fd8
  28000: system.cpu T0 : @__libc_start_main+73    :   movt.w   r3, r3, #6      : IntAlu :  D=0x0000000000068fd8
  28500: system.cpu T0 : @__libc_start_main+77    :   mov   r0, r4             : IntAlu :  D=0x00000000beffff3c
  29000: system.cpu T0 : @__libc_start_main+79    :   str.w   lr, [r1, #0]     : MemWrite :  D=0x0000000000000000 A=0x699b4
  29500: system.cpu T0 : @__libc_start_main+83    :   str   r2, [r3, #0]       : MemWrite :  D=0x00000000beffff34 A=0x68fd8
  30500: system.cpu T0 : @__libc_start_main+85    :   ldr.w   r3, [r0] #4     
  30500: system.cpu T0 : @__libc_start_main+85.0  :   ldr.w   r3, [r0] #4      : MemRead :  D=0x0000000000000000 A=0xbeffff3c
  31000: system.cpu T0 : @__libc_start_main+85.1  :   addi_uop.w   r0, r0, #4  : IntAlu :  D=0x00000000beffff40
  31500: system.cpu T0 : @__libc_start_main+89    :   cmps   r3, #0            : IntAlu :  D=0x0000000000000001
  32000: system.cpu T0 : @__libc_start_main+91    :   b                        : IntAlu : Predicated False
  33000: system.cpu T0 : @__libc_start_main+93    :   bl.w                     : IntAlu :  D=0x00000000000089cf
  33500: system.cpu T0 : @backtrace_symbols_fd+479    :   ldr   r2, [r0, #0]       : MemRead :  D=0x0000000000000010 A=0xbeffff40
  34500: system.cpu T0 : @_dl_aux_init+1    : ldmstm                    
  34500: system.cpu T0 : @_dl_aux_init+1.0  :   str_uop.w   r4, [sp, #32] : MemWrite :  D=0x00000000beffff3c A=0xbefffdc0
  35000: system.cpu T0 : @_dl_aux_init+1.1  :   str_uop.w   r5, [sp, #28] : MemWrite :  D=0x0000000000008df1 A=0xbefffdc4
  35500: system.cpu T0 : @_dl_aux_init+1.2  :   str_uop.w   r6, [sp, #24] : MemWrite :  D=0x0000000000008e61 A=0xbefffdc8
  36000: system.cpu T0 : @_dl_aux_init+1.3  :   str_uop.w   r7, [sp, #20] : MemWrite :  D=0x0000000000000000 A=0xbefffdcc
  36500: system.cpu T0 : @_dl_aux_init+1.4  :   str_uop.w   r8, [sp, #16] : MemWrite :  D=0x0000000000000000 A=0xbefffdd0
  37000: system.cpu T0 : @_dl_aux_init+1.5  :   str_uop.w   r9, [sp, #12] : MemWrite :  D=0x0000000000000000 A=0xbefffdd4
  37500: system.cpu T0 : @_dl_aux_init+1.6  :   str_uop.w   r10, [sp, #8] : MemWrite :  D=0x0000000000000000 A=0xbefffdd8
  38000: system.cpu T0 : @_dl_aux_init+1.7  :   str_uop.w   fp, [sp, #4] : MemWrite :  D=0x0000000000000000 A=0xbefffddc
  38500: system.cpu T0 : @_dl_aux_init+1.8  :   subi_uop.w   sp, sp, #32 : IntAlu :  D=0x00000000befffdc0
  39000: system.cpu T0 : @_dl_aux_init+5    :   sub   sp, sp, #40        : IntAlu :  D=0x00000000befffd98
  39500: system.cpu T0 : @_dl_aux_init+7    :   cmps   r2, #0            : IntAlu :  D=0x0000000000000001
  40500: system.cpu T0 : @_dl_aux_init+9    :   b.w                      : IntAlu : Predicated False
  41500: system.cpu T0 : @_dl_aux_init+13    :   ldr.w   r10, [pc, #620]  : MemRead :  D=0x0000000000069964 A=0x11dbc
  42000: system.cpu T0 : @_dl_aux_init+17    :   movs   r5, #0            : IntAlu :  D=0x0000000000000001
  42500: system.cpu T0 : @_dl_aux_init+19    :   ldr.w   r9, [pc, #616]   : MemRead :  D=0x000000000006af3c A=0x11dc0
  43000: system.cpu T0 : @_dl_aux_init+23    :   add.w   r1, r0, #8       : IntAlu :  D=0x00000000beffff48
  43500: system.cpu T0 : @_dl_aux_init+27    :   ldr.w   r8, [pc, #612]   : MemRead :  D=0x000000000006af2c A=0x11dc4
  44000: system.cpu T0 : @_dl_aux_init+31    :   mov   r7, r5             : IntAlu :  D=0x0000000000000000
  45000: system.cpu T0 : @_dl_aux_init+33    :   ldr.w   r3, [r10, #0]    : MemRead :  D=0x0000000000001000 A=0x69964
  45500: system.cpu T0 : @_dl_aux_init+37    :   mov   r4, r5             : IntAlu :  D=0x0000000000000000
  46000: system.cpu T0 : @_dl_aux_init+39    :   ldr.w   r12, [pc, #604]  : MemRead :  D=0x000000000006af50 A=0x11dc8
  46500: system.cpu T0 : @_dl_aux_init+43    :   ldr   r6, [pc, #576]     : MemRead :  D=0x000000000006ab20 A=0x11db0
  47000: system.cpu T0 : @_dl_aux_init+45    :   str   r3, [sp, #16]      : MemWrite :  D=0x0000000000001000 A=0xbefffda8
  47500: system.cpu T0 : @_dl_aux_init+47    :   ldr.w   r3, [r9, #0]     : MemRead :  D=0x0000000000000000 A=0x6af3c
  48000: system.cpu T0 : @_dl_aux_init+51    :   str   r3, [sp, #12]      : MemWrite :  D=0x0000000000000000 A=0xbefffda4
  49000: system.cpu T0 : @_dl_aux_init+53    :   ldr.w   r3, [r8, #0]     : MemRead :  D=0x0000000000000000 A=0x6af2c
  49500: system.cpu T0 : @_dl_aux_init+57    :   str   r3, [sp, #8]       : MemWrite :  D=0x0000000000000000 A=0xbefffda0
  50000: system.cpu T0 : @_dl_aux_init+59    :   ldr.w   r3, [r12, #0]    : MemRead :  D=0x0000000000000000 A=0x6af50
  50500: system.cpu T0 : @_dl_aux_init+63    :   str   r3, [sp, #4]       : MemWrite :  D=0x0000000000000000 A=0xbefffd9c
  51000: system.cpu T0 : @_dl_aux_init+65    :   ldr   r3, [r6, #0]       : MemRead :  D=0x0000000000000000 A=0x6ab20
  51500: system.cpu T0 : @_dl_aux_init+67    :   str   r3, [sp, #32]      : MemWrite :  D=0x0000000000000000 A=0xbefffdb8
  52000: system.cpu T0 : @_dl_aux_init+69    :   ldr   r3, [r6, #4]       : MemRead :  D=0x0000000000000000 A=0x6ab24
  52500: system.cpu T0 : @_dl_aux_init+71    :   str   r3, [sp, #36]      : MemWrite :  D=0x0000000000000000 A=0xbefffdbc
  53500: system.cpu T0 : @_dl_aux_init+73    :   mov.w   r3, #44868       : IntAlu :  D=0x000000000000af44
  54500: system.cpu T0 : @_dl_aux_init+77    :   movt.w   r3, r3, #6      : IntAlu :  D=0x000000000006af44
  55000: system.cpu T0 : @_dl_aux_init+81    :   ldr   r3, [r3, #0]       : MemRead :  D=0x0000000000000000 A=0x6af44
  55500: system.cpu T0 : @_dl_aux_init+83    :   str   r3, [sp, #0]       : MemWrite :  D=0x0000000000000000 A=0xbefffd98
  56500: system.cpu T0 : @_dl_aux_init+85    :   mov.w   r3, #36828       : IntAlu :  D=0x0000000000008fdc
  57500: system.cpu T0 : @_dl_aux_init+89    :   movt.w   r3, r3, #6      : IntAlu :  D=0x0000000000068fdc
  58000: system.cpu T0 : @_dl_aux_init+93    :   ldr   r3, [r3, #0]       : MemRead :  D=0x0000000000000001 A=0x68fdc
  58500: system.cpu T0 : @_dl_aux_init+95    :   str   r3, [sp, #24]      : MemWrite :  D=0x0000000000000001 A=0xbefffdb0
  59500: system.cpu T0 : @_dl_aux_init+97    :   mov.w   r3, #44980       : IntAlu :  D=0x000000000000afb4
  60500: system.cpu T0 : @_dl_aux_init+101    :   movt.w   r3, r3, #6      : IntAlu :  D=0x000000000006afb4
  61000: system.cpu T0 : @_dl_aux_init+105    :   ldr   r3, [r3, #0]       : MemRead :  D=0x0000000000000000 A=0x6afb4
  61500: system.cpu T0 : @_dl_aux_init+107    :   str   r3, [sp, #28]      : MemWrite :  D=0x0000000000000000 A=0xbefffdb4
  62500: system.cpu T0 : @_dl_aux_init+109    :   mov.w   r3, #36820       : IntAlu :  D=0x0000000000008fd4
  63500: system.cpu T0 : @_dl_aux_init+113    :   movt.w   r3, r3, #6      : IntAlu :  D=0x0000000000068fd4
  64000: system.cpu T0 : @_dl_aux_init+117    :   ldr   r3, [r3, #0]       : MemRead :  D=0x0000000000000000 A=0x68fd4
  64500: system.cpu T0 : @_dl_aux_init+119    :   str   r3, [sp, #20]      : MemWrite :  D=0x0000000000000000 A=0xbefffdac
  65000: system.cpu T0 : @_dl_aux_init+121    :   mov   r3, r1             : IntAlu :  D=0x00000000beffff48
  65500: system.cpu T0 : @_dl_aux_init+123    :   subs   r2, r2, #3        : IntAlu :  D=0x0000000000000001
  66000: system.cpu T0 : @_dl_aux_init+125    :   cmps   r2, #30           : IntAlu :  D=0x0000000000000000
  66500: system.cpu T0 : @_dl_aux_init+127    :   b                        : IntAlu : Predicated False
  67500: system.cpu T0 : @_dl_aux_init+129    :   tbh.w                    : MemRead :  D=0x000000000000008a A=0x11be0
  68500: system.cpu T0 : @_dl_aux_init+409    :   ldr.w   r2, [r3, #-4]    : MemRead :  D=0x00000000000078d7 A=0xbeffff44
  69000: system.cpu T0 : @_dl_aux_init+413    :   adds   r3, r3, #8        : IntAlu :  D=0x0000000000000000
  69500: system.cpu T0 : @_dl_aux_init+415    :   str   r2, [sp, #32]      : MemWrite :  D=0x00000000000078d7 A=0xbefffdb8
  70000: system.cpu T0 : @_dl_aux_init+417    :   movs   r2, #0            : IntAlu :  D=0x0000000000000001
  70500: system.cpu T0 : @_dl_aux_init+419    :   str   r2, [sp, #36]      : MemWrite :  D=0x0000000000000000 A=0xbefffdbc
  71000: system.cpu T0 : @_dl_aux_init+421    :   subs   r2, r3, r0        : IntAlu :  D=0x0000000000000001
  71500: system.cpu T0 : @_dl_aux_init+423    :   adds   r2, r1, r2        : IntAlu :  D=0x0000000000000000
  72500: system.cpu T0 : @_dl_aux_init+425    :   ldr.w   r2, [r2, #-16]   : MemRead :  D=0x0000000000000011 A=0xbeffff48
  73000: system.cpu T0 : @_dl_aux_init+429    :   cmps   r2, #0            : IntAlu :  D=0x0000000000000001
  73500: system.cpu T0 : @_dl_aux_init+431    :   b.w                      : IntAlu : 
  74000: system.cpu T0 : @_dl_aux_init+123    :   subs   r2, r2, #3        : IntAlu :  D=0x0000000000000001
  74500: system.cpu T0 : @_dl_aux_init+125    :   cmps   r2, #30           : IntAlu :  D=0x0000000000000000
  75000: system.cpu T0 : @_dl_aux_init+127    :   b                        : IntAlu : Predicated False
  76000: system.cpu T0 : @_dl_aux_init+129    :   tbh.w                    : MemRead :  D=0x000000000000007e A=0x11be2
  77000: system.cpu T0 : @_dl_aux_init+385    :   ldr.w   r2, [r3, #-4]    : MemRead :  D=0x0000000000000064 A=0xbeffff4c
  77500: system.cpu T0 : @_dl_aux_init+389    :   adds   r3, r3, #8        : IntAlu :  D=0x0000000000000000
  78000: system.cpu T0 : @_dl_aux_init+391    :   str   r2, [sp, #12]      : MemWrite :  D=0x0000000000000064 A=0xbefffda4
  78500: system.cpu T0 : @_dl_aux_init+393    :   subs   r2, r3, r0        : IntAlu :  D=0x0000000000000001
  79000: system.cpu T0 : @_dl_aux_init+395    :   adds   r2, r1, r2        : IntAlu :  D=0x0000000000000000
  80000: system.cpu T0 : @_dl_aux_init+397    :   ldr.w   r2, [r2, #-16]   : MemRead :  D=0x0000000000000017 A=0xbeffff50
  80500: system.cpu T0 : @_dl_aux_init+401    :   cmps   r2, #0            : IntAlu :  D=0x0000000000000001
  81000: system.cpu T0 : @_dl_aux_init+403    :   b.w                      : IntAlu : 
  81500: system.cpu T0 : @_dl_aux_init+123    :   subs   r2, r2, #3        : IntAlu :  D=0x0000000000000001
  82000: system.cpu T0 : @_dl_aux_init+125    :   cmps   r2, #30           : IntAlu :  D=0x0000000000000000
  82500: system.cpu T0 : @_dl_aux_init+127    :   b                        : IntAlu : Predicated False
  83500: system.cpu T0 : @_dl_aux_init+129    :   tbh.w                    : MemRead :  D=0x000000000000006e A=0x11bee
  84500: system.cpu T0 : @_dl_aux_init+353    :   ldr.w   r2, [r3, #-4]    : MemRead :  D=0x0000000000000000 A=0xbeffff54
  85000: system.cpu T0 : @_dl_aux_init+357    :   adds   r3, r3, #8        : IntAlu :  D=0x0000000000000000
  85500: system.cpu T0 : @_dl_aux_init+359    :   mov.w   r4, #4294967295  : IntAlu :  D=0x00000000ffffffff
  86000: system.cpu T0 : @_dl_aux_init+363    :   str   r2, [sp, #24]      : MemWrite :  D=0x0000000000000000 A=0xbefffdb0
  86500: system.cpu T0 : @_dl_aux_init+365    :   movs   r2, #1            : IntAlu :  D=0x0000000000000000
  87000: system.cpu T0 : @_dl_aux_init+367    :   str   r2, [sp, #28]      : MemWrite :  D=0x0000000000000001 A=0xbefffdb4
  87500: system.cpu T0 : @_dl_aux_init+369    :   subs   r2, r3, r0        : IntAlu :  D=0x0000000000000001
  88000: system.cpu T0 : @_dl_aux_init+371    :   adds   r2, r1, r2        : IntAlu :  D=0x0000000000000000
  89000: system.cpu T0 : @_dl_aux_init+373    :   ldr.w   r2, [r2, #-16]   : MemRead :  D=0x0000000000000019 A=0xbeffff58
  89500: system.cpu T0 : @_dl_aux_init+377    :   cmps   r2, #0            : IntAlu :  D=0x0000000000000001
  90000: system.cpu T0 : @_dl_aux_init+379    :   b.w                      : IntAlu : 
  90500: system.cpu T0 : @_dl_aux_init+123    :   subs   r2, r2, #3        : IntAlu :  D=0x0000000000000001
  91000: system.cpu T0 : @_dl_aux_init+125    :   cmps   r2, #30           : IntAlu :  D=0x0000000000000000
  91500: system.cpu T0 : @_dl_aux_init+127    :   b                        : IntAlu : Predicated False
  92500: system.cpu T0 : @_dl_aux_init+129    :   tbh.w                    : MemRead :  D=0x000000000000001f A=0x11bf2
  93000: system.cpu T0 : @_dl_aux_init+195    :   ldr.w   r2, [r3, #-4]    : MemRead :  D=0x00000000beffffd0 A=0xbeffff5c
  93500: system.cpu T0 : @_dl_aux_init+199    :   str   r2, [sp, #20]      : MemWrite :  D=0x00000000beffffd0 A=0xbefffdac
  94000: system.cpu T0 : @_dl_aux_init+201    :   adds   r3, r3, #8        : IntAlu :  D=0x0000000000000000
  94500: system.cpu T0 : @_dl_aux_init+203    :   subs   r2, r3, r0        : IntAlu :  D=0x0000000000000001
  95000: system.cpu T0 : @_dl_aux_init+205    :   adds   r2, r1, r2        : IntAlu :  D=0x0000000000000000
  95500: system.cpu T0 : @_dl_aux_init+207    :   ldr.w   r2, [r2, #-16]   : MemRead :  D=0x000000000000001f A=0xbeffff60
  96000: system.cpu T0 : @_dl_aux_init+211    :   cmps   r2, #0            : IntAlu :  D=0x0000000000000001
  96500: system.cpu T0 : @_dl_aux_init+213    :   b                        : IntAlu : 
  97000: system.cpu T0 : @_dl_aux_init+123    :   subs   r2, r2, #3        : IntAlu :  D=0x0000000000000001
  97500: system.cpu T0 : @_dl_aux_init+125    :   cmps   r2, #30           : IntAlu :  D=0x0000000000000000
  98000: system.cpu T0 : @_dl_aux_init+127    :   b                        : IntAlu : Predicated False
  99000: system.cpu T0 : @_dl_aux_init+129    :   tbh.w                    : MemRead :  D=0x0000000000000022 A=0x11bfe
  99500: system.cpu T0 : @_dl_aux_init+201    :   adds   r3, r3, #8        : IntAlu :  D=0x0000000000000000
 100000: system.cpu T0 : @_dl_aux_init+203    :   subs   r2, r3, r0        : IntAlu :  D=0x0000000000000001
 100500: system.cpu T0 : @_dl_aux_init+205    :   adds   r2, r1, r2        : IntAlu :  D=0x0000000000000000
 101000: system.cpu T0 : @_dl_aux_init+207    :   ldr.w   r2, [r2, #-16]   : MemRead :  D=0x000000000000000f A=0xbeffff68
 101500: system.cpu T0 : @_dl_aux_init+211    :   cmps   r2, #0            : IntAlu :  D=0x0000000000000001
 102000: system.cpu T0 : @_dl_aux_init+213    :   b                        : IntAlu : 
 102500: system.cpu T0 : @_dl_aux_init+123    :   subs   r2, r2, #3        : IntAlu :  D=0x0000000000000001
 103000: system.cpu T0 : @_dl_aux_init+125    :   cmps   r2, #30           : IntAlu :  D=0x0000000000000000
 103500: system.cpu T0 : @_dl_aux_init+127    :   b                        : IntAlu : Predicated False
 104500: system.cpu T0 : @_dl_aux_init+129    :   tbh.w                    : MemRead :  D=0x0000000000000022 A=0x11bde
 105000: system.cpu T0 : @_dl_aux_init+201    :   adds   r3, r3, #8        : IntAlu :  D=0x0000000000000000
 105500: system.cpu T0 : @_dl_aux_init+203    :   subs   r2, r3, r0        : IntAlu :  D=0x0000000000000001
 106000: system.cpu T0 : @_dl_aux_init+205    :   adds   r2, r1, r2        : IntAlu :  D=0x0000000000000000
 106500: system.cpu T0 : @_dl_aux_init+207    :   ldr.w   r2, [r2, #-16]   : MemRead :  D=0x0000000000000006 A=0xbeffff70
 107000: system.cpu T0 : @_dl_aux_init+211    :   cmps   r2, #0            : IntAlu :  D=0x0000000000000001
 107500: system.cpu T0 : @_dl_aux_init+213    :   b                        : IntAlu : 
 108000: system.cpu T0 : @_dl_aux_init+123    :   subs   r2, r2, #3        : IntAlu :  D=0x0000000000000001
 108500: system.cpu T0 : @_dl_aux_init+125    :   cmps   r2, #30           : IntAlu :  D=0x0000000000000000
 109000: system.cpu T0 : @_dl_aux_init+127    :   b                        : IntAlu : Predicated False
 110000: system.cpu T0 : @_dl_aux_init+129    :   tbh.w                    : MemRead :  D=0x00000000000000d0 A=0x11bcc
 111000: system.cpu T0 : @_dl_aux_init+549    :   ldr.w   r2, [r3, #-4]    : MemRead :  D=0x0000000000001000 A=0xbeffff74
 111500: system.cpu T0 : @_dl_aux_init+553    :   adds   r3, r3, #8        : IntAlu :  D=0x0000000000000000
 112000: system.cpu T0 : @_dl_aux_init+555    :   str   r2, [sp, #16]      : MemWrite :  D=0x0000000000001000 A=0xbefffda8
 112500: system.cpu T0 : @_dl_aux_init+557    :   subs   r2, r3, r0        : IntAlu :  D=0x0000000000000001
 113000: system.cpu T0 : @_dl_aux_init+559    :   adds   r2, r1, r2        : IntAlu :  D=0x0000000000000000
 114000: system.cpu T0 : @_dl_aux_init+561    :   ldr.w   r2, [r2, #-16]   : MemRead :  D=0x0000000000000003 A=0xbeffff78
 114500: system.cpu T0 : @_dl_aux_init+565    :   cmps   r2, #0            : IntAlu :  D=0x0000000000000001
 115000: system.cpu T0 : @_dl_aux_init+567    :   b.w                      : IntAlu : 
 115500: system.cpu T0 : @_dl_aux_init+123    :   subs   r2, r2, #3        : IntAlu :  D=0x0000000000000001
 116000: system.cpu T0 : @_dl_aux_init+125    :   cmps   r2, #30           : IntAlu :  D=0x0000000000000000
 116500: system.cpu T0 : @_dl_aux_init+127    :   b                        : IntAlu : Predicated False
 117500: system.cpu T0 : @_dl_aux_init+129    :   tbh.w                    : MemRead :  D=0x00000000000000e8 A=0x11bc6
 118500: system.cpu T0 : @_dl_aux_init+597    :   ldr.w   r2, [r3, #-4]    : MemRead :  D=0x0000000000008034 A=0xbeffff7c
 119000: system.cpu T0 : @_dl_aux_init+601    :   adds   r3, r3, #8        : IntAlu :  D=0x0000000000000000
 119500: system.cpu T0 : @_dl_aux_init+603    :   str   r2, [sp, #8]       : MemWrite :  D=0x0000000000008034 A=0xbefffda0
 120000: system.cpu T0 : @_dl_aux_init+605    :   subs   r2, r3, r0        : IntAlu :  D=0x0000000000000001
 120500: system.cpu T0 : @_dl_aux_init+607    :   adds   r2, r1, r2        : IntAlu :  D=0x0000000000000000
 121500: system.cpu T0 : @_dl_aux_init+609    :   ldr.w   r2, [r2, #-16]   : MemRead :  D=0x0000000000000004 A=0xbeffff80
 122000: system.cpu T0 : @_dl_aux_init+613    :   cmps   r2, #0            : IntAlu :  D=0x0000000000000001
 122500: system.cpu T0 : @_dl_aux_init+615    :   b.w                      : IntAlu : 
 123000: system.cpu T0 : @_dl_aux_init+123    :   subs   r2, r2, #3        : IntAlu :  D=0x0000000000000001
 123500: system.cpu T0 : @_dl_aux_init+125    :   cmps   r2, #30           : IntAlu :  D=0x0000000000000000
 124000: system.cpu T0 : @_dl_aux_init+127    :   b                        : IntAlu : Predicated False
 125000: system.cpu T0 : @_dl_aux_init+129    :   tbh.w                    : MemRead :  D=0x0000000000000022 A=0x11bc8
 125500: system.cpu T0 : @_dl_aux_init+201    :   adds   r3, r3, #8        : IntAlu :  D=0x0000000000000000
 126000: system.cpu T0 : @_dl_aux_init+203    :   subs   r2, r3, r0        : IntAlu :  D=0x0000000000000001
 126500: system.cpu T0 : @_dl_aux_init+205    :   adds   r2, r1, r2        : IntAlu :  D=0x0000000000000000
 127000: system.cpu T0 : @_dl_aux_init+207    :   ldr.w   r2, [r2, #-16]   : MemRead :  D=0x0000000000000005 A=0xbeffff88
 127500: system.cpu T0 : @_dl_aux_init+211    :   cmps   r2, #0            : IntAlu :  D=0x0000000000000001
 128000: system.cpu T0 : @_dl_aux_init+213    :   b                        : IntAlu : 
 128500: system.cpu T0 : @_dl_aux_init+123    :   subs   r2, r2, #3        : IntAlu :  D=0x0000000000000001
 129000: system.cpu T0 : @_dl_aux_init+125    :   cmps   r2, #30           : IntAlu :  D=0x0000000000000000
 129500: system.cpu T0 : @_dl_aux_init+127    :   b                        : IntAlu : Predicated False
 130500: system.cpu T0 : @_dl_aux_init+129    :   tbh.w                    : MemRead :  D=0x00000000000000dc A=0x11bca
 131500: system.cpu T0 : @_dl_aux_init+573    :   ldr.w   r2, [r3, #-4]    : MemRead :  D=0x0000000000000007 A=0xbeffff8c
 132000: system.cpu T0 : @_dl_aux_init+577    :   adds   r3, r3, #8        : IntAlu :  D=0x0000000000000000
 132500: system.cpu T0 : @_dl_aux_init+579    :   str   r2, [sp, #4]       : MemWrite :  D=0x0000000000000007 A=0xbefffd9c
 133000: system.cpu T0 : @_dl_aux_init+581    :   subs   r2, r3, r0        : IntAlu :  D=0x0000000000000001
 133500: system.cpu T0 : @_dl_aux_init+583    :   adds   r2, r1, r2        : IntAlu :  D=0x0000000000000000
 134500: system.cpu T0 : @_dl_aux_init+585    :   ldr.w   r2, [r2, #-16]   : MemRead :  D=0x0000000000000007 A=0xbeffff90
 135000: system.cpu T0 : @_dl_aux_init+589    :   cmps   r2, #0            : IntAlu :  D=0x0000000000000001
 135500: system.cpu T0 : @_dl_aux_init+591    :   b.w                      : IntAlu : 
 136000: system.cpu T0 : @_dl_aux_init+123    :   subs   r2, r2, #3        : IntAlu :  D=0x0000000000000001
 136500: system.cpu T0 : @_dl_aux_init+125    :   cmps   r2, #30           : IntAlu :  D=0x0000000000000000
 137000: system.cpu T0 : @_dl_aux_init+127    :   b                        : IntAlu : Predicated False
 138000: system.cpu T0 : @_dl_aux_init+129    :   tbh.w                    : MemRead :  D=0x0000000000000022 A=0x11bce
 138500: system.cpu T0 : @_dl_aux_init+201    :   adds   r3, r3, #8        : IntAlu :  D=0x0000000000000000
 139000: system.cpu T0 : @_dl_aux_init+203    :   subs   r2, r3, r0        : IntAlu :  D=0x0000000000000001
 139500: system.cpu T0 : @_dl_aux_init+205    :   adds   r2, r1, r2        : IntAlu :  D=0x0000000000000000
 140000: system.cpu T0 : @_dl_aux_init+207    :   ldr.w   r2, [r2, #-16]   : MemRead :  D=0x0000000000000008 A=0xbeffff98
 140500: system.cpu T0 : @_dl_aux_init+211    :   cmps   r2, #0            : IntAlu :  D=0x0000000000000001
 141000: system.cpu T0 : @_dl_aux_init+213    :   b                        : IntAlu : 
 141500: system.cpu T0 : @_dl_aux_init+123    :   subs   r2, r2, #3        : IntAlu :  D=0x0000000000000001
 142000: system.cpu T0 : @_dl_aux_init+125    :   cmps   r2, #30           : IntAlu :  D=0x0000000000000000
 142500: system.cpu T0 : @_dl_aux_init+127    :   b                        : IntAlu : Predicated False
 143500: system.cpu T0 : @_dl_aux_init+129    :   tbh.w                    : MemRead :  D=0x0000000000000022 A=0x11bd0
 144000: system.cpu T0 : @_dl_aux_init+201    :   adds   r3, r3, #8        : IntAlu :  D=0x0000000000000000
 144500: system.cpu T0 : @_dl_aux_init+203    :   subs   r2, r3, r0        : IntAlu :  D=0x0000000000000001
 145000: system.cpu T0 : @_dl_aux_init+205    :   adds   r2, r1, r2        : IntAlu :  D=0x0000000000000000
 145500: system.cpu T0 : @_dl_aux_init+207    :   ldr.w   r2, [r2, #-16]   : MemRead :  D=0x0000000000000009 A=0xbeffffa0
 146000: system.cpu T0 : @_dl_aux_init+211    :   cmps   r2, #0            : IntAlu :  D=0x0000000000000001
 146500: system.cpu T0 : @_dl_aux_init+213    :   b                        : IntAlu : 
 147000: system.cpu T0 : @_dl_aux_init+123    :   subs   r2, r2, #3        : IntAlu :  D=0x0000000000000001
 147500: system.cpu T0 : @_dl_aux_init+125    :   cmps   r2, #30           : IntAlu :  D=0x0000000000000000
 148000: system.cpu T0 : @_dl_aux_init+127    :   b                        : IntAlu : Predicated False
 149000: system.cpu T0 : @_dl_aux_init+129    :   tbh.w                    : MemRead :  D=0x0000000000000022 A=0x11bd2
 149500: system.cpu T0 : @_dl_aux_init+201    :   adds   r3, r3, #8        : IntAlu :  D=0x0000000000000000
 150000: system.cpu T0 : @_dl_aux_init+203    :   subs   r2, r3, r0        : IntAlu :  D=0x0000000000000001
 150500: system.cpu T0 : @_dl_aux_init+205    :   adds   r2, r1, r2        : IntAlu :  D=0x0000000000000000
 151000: system.cpu T0 : @_dl_aux_init+207    :   ldr.w   r2, [r2, #-16]   : MemRead :  D=0x000000000000000b A=0xbeffffa8
 151500: system.cpu T0 : @_dl_aux_init+211    :   cmps   r2, #0            : IntAlu :  D=0x0000000000000001
 152000: system.cpu T0 : @_dl_aux_init+213    :   b                        : IntAlu : 
 152500: system.cpu T0 : @_dl_aux_init+123    :   subs   r2, r2, #3        : IntAlu :  D=0x0000000000000001
 153000: system.cpu T0 : @_dl_aux_init+125    :   cmps   r2, #30           : IntAlu :  D=0x0000000000000000
 153500: system.cpu T0 : @_dl_aux_init+127    :   b                        : IntAlu : Predicated False
 154500: system.cpu T0 : @_dl_aux_init+129    :   tbh.w                    : MemRead :  D=0x00000000000000c2 A=0x11bd6
 155500: system.cpu T0 : @_dl_aux_init+521    :   ldr.w   r2, [r3, #-4]    : MemRead :  D=0x0000000000000064 A=0xbeffffac
 156000: system.cpu T0 : @_dl_aux_init+525    :   adds   r3, r3, #8        : IntAlu :  D=0x0000000000000000
 156500: system.cpu T0 : @_dl_aux_init+527    :   orr.w   r4, r4, #1       : IntAlu :  D=0x00000000ffffffff
 157000: system.cpu T0 : @_dl_aux_init+531    :   eors   r7, r7, r2        : IntAlu :  D=0x0000000000000000
 157500: system.cpu T0 : @_dl_aux_init+533    :   subs   r2, r3, r0        : IntAlu :  D=0x0000000000000001
 158000: system.cpu T0 : @_dl_aux_init+535    :   adds   r2, r1, r2        : IntAlu :  D=0x0000000000000000
 159000: system.cpu T0 : @_dl_aux_init+537    :   ldr.w   r2, [r2, #-16]   : MemRead :  D=0x000000000000000c A=0xbeffffb0
 159500: system.cpu T0 : @_dl_aux_init+541    :   cmps   r2, #0            : IntAlu :  D=0x0000000000000001
 160000: system.cpu T0 : @_dl_aux_init+543    :   b.w                      : IntAlu : 
 160500: system.cpu T0 : @_dl_aux_init+123    :   subs   r2, r2, #3        : IntAlu :  D=0x0000000000000001
 161000: system.cpu T0 : @_dl_aux_init+125    :   cmps   r2, #30           : IntAlu :  D=0x0000000000000000
 161500: system.cpu T0 : @_dl_aux_init+127    :   b                        : IntAlu : Predicated False
 162500: system.cpu T0 : @_dl_aux_init+129    :   tbh.w                    : MemRead :  D=0x00000000000000b4 A=0x11bd8
 163500: system.cpu T0 : @_dl_aux_init+493    :   ldr.w   r2, [r3, #-4]    : MemRead :  D=0x0000000000000064 A=0xbeffffb4
 164000: system.cpu T0 : @_dl_aux_init+497    :   adds   r3, r3, #8        : IntAlu :  D=0x0000000000000000
 164500: system.cpu T0 : @_dl_aux_init+499    :   orr.w   r4, r4, #2       : IntAlu :  D=0x00000000ffffffff
 165000: system.cpu T0 : @_dl_aux_init+503    :   eors   r7, r7, r2        : IntAlu :  D=0x0000000000000001
 165500: system.cpu T0 : @_dl_aux_init+505    :   subs   r2, r3, r0        : IntAlu :  D=0x0000000000000001
 166000: system.cpu T0 : @_dl_aux_init+507    :   adds   r2, r1, r2        : IntAlu :  D=0x0000000000000000
 167000: system.cpu T0 : @_dl_aux_init+509    :   ldr.w   r2, [r2, #-16]   : MemRead :  D=0x000000000000000d A=0xbeffffb8
 167500: system.cpu T0 : @_dl_aux_init+513    :   cmps   r2, #0            : IntAlu :  D=0x0000000000000001
 168000: system.cpu T0 : @_dl_aux_init+515    :   b.w                      : IntAlu : 
 168500: system.cpu T0 : @_dl_aux_init+123    :   subs   r2, r2, #3        : IntAlu :  D=0x0000000000000001
 169000: system.cpu T0 : @_dl_aux_init+125    :   cmps   r2, #30           : IntAlu :  D=0x0000000000000000
 169500: system.cpu T0 : @_dl_aux_init+127    :   b                        : IntAlu : Predicated False
 170500: system.cpu T0 : @_dl_aux_init+129    :   tbh.w                    : MemRead :  D=0x00000000000000a6 A=0x11bda
 171500: system.cpu T0 : @_dl_aux_init+465    :   ldr.w   r2, [r3, #-4]    : MemRead :  D=0x0000000000000064 A=0xbeffffbc
 172000: system.cpu T0 : @_dl_aux_init+469    :   adds   r3, r3, #8        : IntAlu :  D=0x0000000000000000
 172500: system.cpu T0 : @_dl_aux_init+471    :   orr.w   r4, r4, #4       : IntAlu :  D=0x00000000ffffffff
 173000: system.cpu T0 : @_dl_aux_init+475    :   eors   r5, r5, r2        : IntAlu :  D=0x0000000000000000
 173500: system.cpu T0 : @_dl_aux_init+477    :   subs   r2, r3, r0        : IntAlu :  D=0x0000000000000001
 174000: system.cpu T0 : @_dl_aux_init+479    :   adds   r2, r1, r2        : IntAlu :  D=0x0000000000000000
 175000: system.cpu T0 : @_dl_aux_init+481    :   ldr.w   r2, [r2, #-16]   : MemRead :  D=0x000000000000000e A=0xbeffffc0
 175500: system.cpu T0 : @_dl_aux_init+485    :   cmps   r2, #0            : IntAlu :  D=0x0000000000000001
 176000: system.cpu T0 : @_dl_aux_init+487    :   b.w                      : IntAlu : 
 176500: system.cpu T0 : @_dl_aux_init+123    :   subs   r2, r2, #3        : IntAlu :  D=0x0000000000000001
 177000: system.cpu T0 : @_dl_aux_init+125    :   cmps   r2, #30           : IntAlu :  D=0x0000000000000000
 177500: system.cpu T0 : @_dl_aux_init+127    :   b                        : IntAlu : Predicated False
 178500: system.cpu T0 : @_dl_aux_init+129    :   tbh.w                    : MemRead :  D=0x0000000000000098 A=0x11bdc
 179500: system.cpu T0 : @_dl_aux_init+437    :   ldr.w   r2, [r3, #-4]    : MemRead :  D=0x0000000000000064 A=0xbeffffc4
 180000: system.cpu T0 : @_dl_aux_init+441    :   adds   r3, r3, #8        : IntAlu :  D=0x0000000000000000
 180500: system.cpu T0 : @_dl_aux_init+443    :   orr.w   r4, r4, #8       : IntAlu :  D=0x00000000ffffffff
 181000: system.cpu T0 : @_dl_aux_init+447    :   eors   r5, r5, r2        : IntAlu :  D=0x0000000000000001
 181500: system.cpu T0 : @_dl_aux_init+449    :   subs   r2, r3, r0        : IntAlu :  D=0x0000000000000001
 182000: system.cpu T0 : @_dl_aux_init+451    :   adds   r2, r1, r2        : IntAlu :  D=0x0000000000000000
 183000: system.cpu T0 : @_dl_aux_init+453    :   ldr.w   r2, [r2, #-16]   : MemRead :  D=0x0000000000000000 A=0xbeffffc8
 183500: system.cpu T0 : @_dl_aux_init+457    :   cmps   r2, #0            : IntAlu :  D=0x0000000000000001
 184000: system.cpu T0 : @_dl_aux_init+459    :   b.w                      : IntAlu : Predicated False
 184500: system.cpu T0 : @_dl_aux_init+463    :   b                        : IntAlu : 
 185000: system.cpu T0 : @_dl_aux_init+215    :   ldr   r3, [sp, #16]      : MemRead :  D=0x0000000000001000 A=0xbefffda8
 186000: system.cpu T0 : @_dl_aux_init+217    :   mov.w   fp, #44868       : IntAlu :  D=0x000000000000af44
 186500: system.cpu T0 : @_dl_aux_init+221    :   ldr   r2, [sp, #12]      : MemRead :  D=0x0000000000000064 A=0xbefffda4
 187000: system.cpu T0 : @_dl_aux_init+223    :   movt.w   fp, fp, #6      : IntAlu :  D=0x000000000006af44
 187500: system.cpu T0 : @_dl_aux_init+227    :   cmps   r4, #15           : IntAlu :  D=0x0000000000000001
 188500: system.cpu T0 : @_dl_aux_init+229    :   str.w   r3, [r10, #0]    : MemWrite :  D=0x0000000000001000 A=0x69964
 189000: system.cpu T0 : @_dl_aux_init+233    :   ldr   r3, [sp, #8]       : MemRead :  D=0x0000000000008034 A=0xbefffda0
 189500: system.cpu T0 : @_dl_aux_init+235    :   str.w   r2, [r9, #0]     : MemWrite :  D=0x0000000000000064 A=0x6af3c
 190000: system.cpu T0 : @_dl_aux_init+239    :   ldr   r2, [sp, #4]       : MemRead :  D=0x0000000000000007 A=0xbefffd9c
 191000: system.cpu T0 : @_dl_aux_init+241    :   str.w   r3, [r8, #0]     : MemWrite :  D=0x0000000000008034 A=0x6af2c
 191500: system.cpu T0 : @_dl_aux_init+245    :   ldr   r3, [sp, #32]      : MemRead :  D=0x00000000000078d7 A=0xbefffdb8
 192000: system.cpu T0 : @_dl_aux_init+247    :   str.w   r2, [r12, #0]    : MemWrite :  D=0x0000000000000007 A=0x6af50
 192500: system.cpu T0 : @_dl_aux_init+251    :   ldr   r2, [sp, #36]      : MemRead :  D=0x0000000000000000 A=0xbefffdbc
 193000: system.cpu T0 : @_dl_aux_init+253    :   str   r3, [r6, #0]       : MemWrite :  D=0x00000000000078d7 A=0x6ab20
 193500: system.cpu T0 : @_dl_aux_init+255    :   ldr   r3, [sp, #0]       : MemRead :  D=0x0000000000000000 A=0xbefffd98
 194000: system.cpu T0 : @_dl_aux_init+257    :   str   r2, [r6, #4]       : MemWrite :  D=0x0000000000000000 A=0x6ab24
 194500: system.cpu T0 : @_dl_aux_init+259    :   ldr   r2, [sp, #24]      : MemRead :  D=0x0000000000000000 A=0xbefffdb0
 195500: system.cpu T0 : @_dl_aux_init+261    :   str.w   r3, [fp, #0]     : MemWrite :  D=0x0000000000000000 A=0x6af44
 196500: system.cpu T0 : @_dl_aux_init+265    :   mov.w   r3, #36828       : IntAlu :  D=0x0000000000008fdc
 197500: system.cpu T0 : @_dl_aux_init+269    :   movt.w   r3, r3, #6      : IntAlu :  D=0x0000000000068fdc
 198000: system.cpu T0 : @_dl_aux_init+273    :   str   r2, [r3, #0]       : MemWrite :  D=0x0000000000000000 A=0x68fdc
 198500: system.cpu T0 : @_dl_aux_init+275    :   mov.w   r3, #44980       : IntAlu :  D=0x000000000000afb4
 199000: system.cpu T0 : @_dl_aux_init+279    :   ldr   r2, [sp, #28]      : MemRead :  D=0x0000000000000001 A=0xbefffdb4
 200000: system.cpu T0 : @_dl_aux_init+281    :   movt.w   r3, r3, #6      : IntAlu :  D=0x000000000006afb4
 200500: system.cpu T0 : @_dl_aux_init+285    :   str   r2, [r3, #0]       : MemWrite :  D=0x0000000000000001 A=0x6afb4
 201000: system.cpu T0 : @_dl_aux_init+287    :   mov.w   r3, #36820       : IntAlu :  D=0x0000000000008fd4
 201500: system.cpu T0 : @_dl_aux_init+291    :   ldr   r2, [sp, #20]      : MemRead :  D=0x00000000beffffd0 A=0xbefffdac
 202500: system.cpu T0 : @_dl_aux_init+293    :   movt.w   r3, r3, #6      : IntAlu :  D=0x0000000000068fd4
 203000: system.cpu T0 : @_dl_aux_init+297    :   str   r2, [r3, #0]       : MemWrite :  D=0x00000000beffffd0 A=0x68fd4
 203500: system.cpu T0 : @_dl_aux_init+299    :   b                        : IntAlu : 
 204000: system.cpu T0 : @_dl_aux_init+323    :   add   sp, sp, #40        : IntAlu :  D=0x00000000befffdc0
 205000: system.cpu T0 : @_dl_aux_init+325    : ldmstm                    
 205000: system.cpu T0 : @_dl_aux_init+325.0  :   ldr2_uop.w   r4,r5, [sp, #0] : MemRead :  D=0x0000000000008df1 A=0xbefffdc0
 205500: system.cpu T0 : @_dl_aux_init+325.1  :   ldr2_uop.w   r6,r7, [sp, #8] : MemRead :  D=0x0000000000000000 A=0xbefffdc8
 206000: system.cpu T0 : @_dl_aux_init+325.2  :   ldr2_uop.w   r8,r9, [sp, #16] : MemRead :  D=0x0000000000000000 A=0xbefffdd0
 206500: system.cpu T0 : @_dl_aux_init+325.3  :   ldr2_uop.w   r10,fp, [sp, #24] : MemRead :  D=0x0000000000000000 A=0xbefffdd8
 207000: system.cpu T0 : @_dl_aux_init+325.4  :   addi_uop.w   sp, sp, #32 : IntAlu :  D=0x00000000befffde0
 207500: system.cpu T0 : @_dl_aux_init+329    :   bx                       : IntAlu : 
 208500: system.cpu T0 : @__libc_start_main+97    :   mov.w   r3, #39348       : IntAlu :  D=0x00000000000099b4
 209500: system.cpu T0 : @__libc_start_main+101    :   movt.w   r3, r3, #6      : IntAlu :  D=0x00000000000699b4
 210000: system.cpu T0 : @__libc_start_main+105    :   ldr   r3, [r3, #0]       : MemRead :  D=0x0000000000000000 A=0x699b4
 210500: system.cpu T0 : @__libc_start_main+107    :   cbnz                     : IntAlu : Predicated False
 211500: system.cpu T0 : @__libc_start_main+109    :   bl.w                     : IntAlu :  D=0x00000000000089df
 212000: system.cpu T0 : @__libc_init_secure+59    : ldmstm                    
 212000: system.cpu T0 : @__libc_init_secure+59.0  :   str_uop   r4, [sp, #12]  : MemWrite :  D=0x00000000beffff3c A=0xbefffdd4
 212500: system.cpu T0 : @__libc_init_secure+59.1  :   str_uop   r5, [sp, #8]   : MemWrite :  D=0x0000000000008df1 A=0xbefffdd8
 213000: system.cpu T0 : @__libc_init_secure+59.2  :   str_uop   lr, [sp, #4]   : MemWrite :  D=0x00000000000089df A=0xbefffddc
 213500: system.cpu T0 : @__libc_init_secure+59.3  :   subi_uop   sp, sp, #12   : IntAlu :  D=0x00000000befffdd4
 214000: system.cpu T0 : @_dl_discover_osversion+1    :   sub   sp, sp, #460       : IntAlu :  D=0x00000000befffc08
 214500: system.cpu T0 : @_dl_discover_osversion+3    :   mov   r0, sp             : IntAlu :  D=0x00000000befffc08
 215500: system.cpu T0 : @_dl_discover_osversion+5    :   blx.w                    : IntAlu :  D=0x00000000000122af
 216000: system.cpu T0 : @uname    :   str   r7, [sp, #-4]!    
 216000: system.cpu T0 : @uname.0  :   str   r7, [sp, #-4]!     : MemWrite :  D=0x0000000000000000 A=0xbefffc04
 216500: system.cpu T0 : @uname.1  :   subi_uop   sp, sp, #4    : IntAlu :  D=0x00000000befffc04
 217000: system.cpu T0 : @uname+4    :   mov   r7, #122           : IntAlu :  D=0x000000000000007a
 217500: system.cpu T0 : @uname+8    :   svc   #0                 : IntAlu : 
 218000: system.cpu T0 : @uname+12    :   ldr   r7, [sp] #4       
 218000: system.cpu T0 : @uname+12.0  :   ldr   r7, [sp] #4        : MemRead :  D=0x0000000000000000 A=0xbefffc04
 218500: system.cpu T0 : @uname+12.1  :   addi_uop   sp, sp, #4    : IntAlu :  D=0x00000000befffc08
 219000: system.cpu T0 : @uname+16    :   cmns   r0, #4096         : IntAlu :  D=0x0000000000000000
 219500: system.cpu T0 : @uname+20    :   bxcc                     : IntAlu : 
 220500: system.cpu T0 : @_dl_discover_osversion+9    :   add.w   r1, sp, #130     : IntAlu :  D=0x00000000befffc8a
 221000: system.cpu T0 : @_dl_discover_osversion+13    :   cmps   r0, #0            : IntAlu :  D=0x0000000000000001
 221500: system.cpu T0 : @_dl_discover_osversion+15    :   b                        : IntAlu : Predicated False
 222000: system.cpu T0 : @_dl_discover_osversion+17    :   movs   r5, #0            : IntAlu :  D=0x0000000000000001
 222500: system.cpu T0 : @_dl_discover_osversion+19    :   mov   r0, r5             : IntAlu :  D=0x0000000000000000
 223000: system.cpu T0 : @_dl_discover_osversion+21    :   ldrb   r2, [r1, #0]      : MemRead :  D=0x0000000000000033 A=0xbefffc8a
 223500: system.cpu T0 : @_dl_discover_osversion+23    :   subs   r2, r2, #48       : IntAlu :  D=0x0000000000000001
 224000: system.cpu T0 : @_dl_discover_osversion+25    :   uxtb   r3, #0, r2        : IntAlu :  D=0x0000000000000003
 224500: system.cpu T0 : @_dl_discover_osversion+27    :   cmps   r3, #9            : IntAlu :  D=0x0000000000000000
 225000: system.cpu T0 : @_dl_discover_osversion+29    :   b                        : IntAlu : Predicated False
 225500: system.cpu T0 : @_dl_discover_osversion+31    :   ldrb   r3, [r1, #1]      : MemRead :  D=0x000000000000002e A=0xbefffc8b
 226000: system.cpu T0 : @_dl_discover_osversion+33    :   adds   r1, r1, #1        : IntAlu :  D=0x0000000000000000
 226500: system.cpu T0 : @_dl_discover_osversion+35    :   sub.w   r4, r3, #48      : IntAlu :  D=0x00000000fffffffe
 227000: system.cpu T0 : @_dl_discover_osversion+39    :   cmps   r4, #9            : IntAlu :  D=0x0000000000000001
 227500: system.cpu T0 : @_dl_discover_osversion+41    :   b                        : IntAlu : 
 228000: system.cpu T0 : @_dl_discover_osversion+65    :   adds   r5, r5, #1        : IntAlu :  D=0x0000000000000000
 228500: system.cpu T0 : @_dl_discover_osversion+67    :   adds   r1, r1, #1        : IntAlu :  D=0x0000000000000000
 229000: system.cpu T0 : @_dl_discover_osversion+69    :   cmps   r3, #46           : IntAlu :  D=0x0000000000000001
 229500: system.cpu T0 : @_dl_discover_osversion+71    :   orr.w   r0, r2, r0, LSL #8 : IntAlu :  D=0x0000000000000003
 230000: system.cpu T0 : @_dl_discover_osversion+75    :   b                        : IntAlu : Predicated False
 230500: system.cpu T0 : @_dl_discover_osversion+77    :   cmps   r5, #3            : IntAlu :  D=0x0000000000000000
 231000: system.cpu T0 : @_dl_discover_osversion+79    :   b                        : IntAlu : 
 231500: system.cpu T0 : @_dl_discover_osversion+21    :   ldrb   r2, [r1, #0]      : MemRead :  D=0x0000000000000030 A=0xbefffc8c
 232000: system.cpu T0 : @_dl_discover_osversion+23    :   subs   r2, r2, #48       : IntAlu :  D=0x0000000000000001
 232500: system.cpu T0 : @_dl_discover_osversion+25    :   uxtb   r3, #0, r2        : IntAlu :  D=0x0000000000000000
 233000: system.cpu T0 : @_dl_discover_osversion+27    :   cmps   r3, #9            : IntAlu :  D=0x0000000000000000
 233500: system.cpu T0 : @_dl_discover_osversion+29    :   b                        : IntAlu : Predicated False
 234000: system.cpu T0 : @_dl_discover_osversion+31    :   ldrb   r3, [r1, #1]      : MemRead :  D=0x000000000000002e A=0xbefffc8d
 234500: system.cpu T0 : @_dl_discover_osversion+33    :   adds   r1, r1, #1        : IntAlu :  D=0x0000000000000000
 235000: system.cpu T0 : @_dl_discover_osversion+35    :   sub.w   r4, r3, #48      : IntAlu :  D=0x00000000fffffffe
 235500: system.cpu T0 : @_dl_discover_osversion+39    :   cmps   r4, #9            : IntAlu :  D=0x0000000000000001
 236000: system.cpu T0 : @_dl_discover_osversion+41    :   b                        : IntAlu : 
 236500: system.cpu T0 : @_dl_discover_osversion+65    :   adds   r5, r5, #1        : IntAlu :  D=0x0000000000000000
 237000: system.cpu T0 : @_dl_discover_osversion+67    :   adds   r1, r1, #1        : IntAlu :  D=0x0000000000000000
 237500: system.cpu T0 : @_dl_discover_osversion+69    :   cmps   r3, #46           : IntAlu :  D=0x0000000000000001
 238000: system.cpu T0 : @_dl_discover_osversion+71    :   orr.w   r0, r2, r0, LSL #8 : IntAlu :  D=0x0000000000000300
 238500: system.cpu T0 : @_dl_discover_osversion+75    :   b                        : IntAlu : Predicated False
 239000: system.cpu T0 : @_dl_discover_osversion+77    :   cmps   r5, #3            : IntAlu :  D=0x0000000000000000
 239500: system.cpu T0 : @_dl_discover_osversion+79    :   b                        : IntAlu : 
 240000: system.cpu T0 : @_dl_discover_osversion+21    :   ldrb   r2, [r1, #0]      : MemRead :  D=0x0000000000000030 A=0xbefffc8e
 240500: system.cpu T0 : @_dl_discover_osversion+23    :   subs   r2, r2, #48       : IntAlu :  D=0x0000000000000001
 241000: system.cpu T0 : @_dl_discover_osversion+25    :   uxtb   r3, #0, r2        : IntAlu :  D=0x0000000000000000
 241500: system.cpu T0 : @_dl_discover_osversion+27    :   cmps   r3, #9            : IntAlu :  D=0x0000000000000000
 242000: system.cpu T0 : @_dl_discover_osversion+29    :   b                        : IntAlu : Predicated False
 242500: system.cpu T0 : @_dl_discover_osversion+31    :   ldrb   r3, [r1, #1]      : MemRead :  D=0x0000000000000000 A=0xbefffc8f
 243000: system.cpu T0 : @_dl_discover_osversion+33    :   adds   r1, r1, #1        : IntAlu :  D=0x0000000000000000
 243500: system.cpu T0 : @_dl_discover_osversion+35    :   sub.w   r4, r3, #48      : IntAlu :  D=0x00000000ffffffd0
 244000: system.cpu T0 : @_dl_discover_osversion+39    :   cmps   r4, #9            : IntAlu :  D=0x0000000000000001
 244500: system.cpu T0 : @_dl_discover_osversion+41    :   b                        : IntAlu : 
 245000: system.cpu T0 : @_dl_discover_osversion+65    :   adds   r5, r5, #1        : IntAlu :  D=0x0000000000000000
 245500: system.cpu T0 : @_dl_discover_osversion+67    :   adds   r1, r1, #1        : IntAlu :  D=0x0000000000000000
 246000: system.cpu T0 : @_dl_discover_osversion+69    :   cmps   r3, #46           : IntAlu :  D=0x0000000000000000
 246500: system.cpu T0 : @_dl_discover_osversion+71    :   orr.w   r0, r2, r0, LSL #8 : IntAlu :  D=0x0000000000030000
 247000: system.cpu T0 : @_dl_discover_osversion+75    :   b                        : IntAlu : 
 247500: system.cpu T0 : @_dl_discover_osversion+85    :   cmps   r5, #3            : IntAlu :  D=0x0000000000000001
 248000: system.cpu T0 : @_dl_discover_osversion+87    :   b                        : IntAlu : 
 248500: system.cpu T0 : @_dl_discover_osversion+81    :   add   sp, sp, #460       : IntAlu :  D=0x00000000befffdd4
 249000: system.cpu T0 : @_dl_discover_osversion+83    : ldmstm                    
 249000: system.cpu T0 : @_dl_discover_osversion+83.0  :   ldr2_uop   r4,r5, [sp, #0] : MemRead :  D=0x0000000000008df1 A=0xbefffdd4
 249500: system.cpu T0 : @_dl_discover_osversion+83.1  :   ldr_uop   r36, [sp, #8]  : MemRead :  D=0x00000000000089df A=0xbefffddc
 250000: system.cpu T0 : @_dl_discover_osversion+83.2  :   addi_uop   sp, sp, #12   : IntAlu :  D=0x00000000befffde0
 250500: system.cpu T0 : @_dl_discover_osversion+83.3  :   uopReg_uop   pc, r36     : IntAlu :  D=0x00000000000089df
 251000: system.cpu T0 : @__libc_start_main+113    :   cmps   r0, #0            : IntAlu :  D=0x0000000000000001
 251500: system.cpu T0 : @__libc_start_main+115    :   b                        : IntAlu : Predicated False
 252000: system.cpu T0 : @__libc_start_main+117    :   ldr   r3, [pc, #260]     : MemRead :  D=0x000000000006af60 A=0x8ae8
 252500: system.cpu T0 : @__libc_start_main+119    :   ldr   r3, [r3, #0]       : MemRead :  D=0x0000000000000000 A=0x6af60
 253000: system.cpu T0 : @__libc_start_main+121    :   cmps   r3, #0            : IntAlu :  D=0x0000000000000001
 253500: system.cpu T0 : @__libc_start_main+123    :   b                        : IntAlu : Predicated False
 254000: system.cpu T0 : @__libc_start_main+125    :   ldr   r3, [pc, #252]     : MemRead :  D=0x000000000006af60 A=0x8ae8
 254500: system.cpu T0 : @__libc_start_main+127    :   str   r0, [r3, #0]       : MemWrite :  D=0x0000000000030000 A=0x6af60
 255500: system.cpu T0 : @__libc_start_main+129    :   mov.w   r3, #1566        : IntAlu :  D=0x000000000000061e
 256500: system.cpu T0 : @__libc_start_main+133    :   movt.w   r3, r3, #2      : IntAlu :  D=0x000000000002061e
 257000: system.cpu T0 : @__libc_start_main+137    :   cmps   r0, r3            : IntAlu :  D=0x0000000000000001
 257500: system.cpu T0 : @__libc_start_main+139    :   b                        : IntAlu : Predicated False
 258500: system.cpu T0 : @__libc_start_main+141    :   bl.w                     : IntAlu :  D=0x00000000000089ff
 259000: system.cpu T0 : @__tls_get_addr+15    :   bx                       : IntAlu : 
 260000: system.cpu T0 : @__libc_start_main+145    :   bl.w                     : IntAlu :  D=0x0000000000008a03
 260500: system.cpu T0 : @_dl_tls_setup+115    :   movs   r0, #8            : IntAlu :  D=0x0000000000000000
 261000: system.cpu T0 : @__pthread_initialize_minimal+1    :   movs   r1, #16           : IntAlu :  D=0x0000000000000000
 261500: system.cpu T0 : @__pthread_initialize_minimal+3    :   b.w                      : IntAlu : 
 262000: system.cpu T0 : @__libc_check_standard_fds+35    :   ldr   r3, [pc, #376]     : MemRead :  D=0x000000000006af2c A=0x8d38
 263000: system.cpu T0 : @__libc_setup_tls+1    : ldmstm                    
 263000: system.cpu T0 : @__libc_setup_tls+1.0  :   str_uop.w   r4, [sp, #36] : MemWrite :  D=0x00000000beffff3c A=0xbefffdbc
 263500: system.cpu T0 : @__libc_setup_tls+1.1  :   str_uop.w   r5, [sp, #32] : MemWrite :  D=0x0000000000008df1 A=0xbefffdc0
 264000: system.cpu T0 : @__libc_setup_tls+1.2  :   str_uop.w   r6, [sp, #28] : MemWrite :  D=0x0000000000008e61 A=0xbefffdc4
 264500: system.cpu T0 : @__libc_setup_tls+1.3  :   str_uop.w   r7, [sp, #24] : MemWrite :  D=0x0000000000000000 A=0xbefffdc8
 265000: system.cpu T0 : @__libc_setup_tls+1.4  :   str_uop.w   r8, [sp, #20] : MemWrite :  D=0x0000000000000000 A=0xbefffdcc
 265500: system.cpu T0 : @__libc_setup_tls+1.5  :   str_uop.w   r9, [sp, #16] : MemWrite :  D=0x0000000000000000 A=0xbefffdd0
 266000: system.cpu T0 : @__libc_setup_tls+1.6  :   str_uop.w   r10, [sp, #12] : MemWrite :  D=0x0000000000000000 A=0xbefffdd4
 266500: system.cpu T0 : @__libc_setup_tls+1.7  :   str_uop.w   fp, [sp, #8] : MemWrite :  D=0x0000000000000000 A=0xbefffdd8
 267000: system.cpu T0 : @__libc_setup_tls+1.8  :   str_uop.w   lr, [sp, #4] : MemWrite :  D=0x0000000000008a03 A=0xbefffddc
 267500: system.cpu T0 : @__libc_setup_tls+1.9  :   subi_uop.w   sp, sp, #36 : IntAlu :  D=0x00000000befffdbc
 268000: system.cpu T0 : @__libc_setup_tls+5    :   sub   sp, sp, #12        : IntAlu :  D=0x00000000befffdb0
 268500: system.cpu T0 : @__libc_setup_tls+7    :   ldr   r4, [r3, #0]       : MemRead :  D=0x0000000000008034 A=0x6af2c
 269000: system.cpu T0 : @__libc_setup_tls+9    :   cmps   r4, #0            : IntAlu :  D=0x0000000000000001
 269500: system.cpu T0 : @__libc_setup_tls+11    :   b.w                      : IntAlu : Predicated False
 270000: system.cpu T0 : @__libc_setup_tls+15    :   ldr   r3, [pc, #364]     : MemRead :  D=0x000000000006af50 A=0x8d3c
 270500: system.cpu T0 : @__libc_setup_tls+17    :   ldr   r5, [r3, #0]       : MemRead :  D=0x0000000000000007 A=0x6af50
 271000: system.cpu T0 : @__libc_setup_tls+19    :   add.w   r5, r4, r5, LSL #5 : IntAlu :  D=0x0000000000008114
 271500: system.cpu T0 : @__libc_setup_tls+23    :   cmps   r5, r4            : IntAlu :  D=0x0000000000000001
 272000: system.cpu T0 : @__libc_setup_tls+25    :   b                        : IntAlu : Predicated False
 272500: system.cpu T0 : @__libc_setup_tls+27    :   ldr   r3, [r4, #0]       : MemRead :  D=0x0000000070000001 A=0x8034
 273000: system.cpu T0 : @__libc_setup_tls+29    :   cmps   r3, #7            : IntAlu :  D=0x0000000000000001
 273500: system.cpu T0 : @__libc_setup_tls+31    :   mov   r3, r4             : IntAlu :  D=0x0000000000008034
 274000: system.cpu T0 : @__libc_setup_tls+33    :   it                       : IntAlu : 
 274500: system.cpu T0 : @__libc_setup_tls+35    :   add.w   r7, r4, #32      : IntAlu :  D=0x0000000000008054
 275000: system.cpu T0 : @__libc_setup_tls+39    :   b                        : IntAlu : 
 275500: system.cpu T0 : @__libc_setup_tls+57    :   adds   r3, r3, #32       : IntAlu :  D=0x0000000000000000
 276000: system.cpu T0 : @__libc_setup_tls+59    :   cmps   r5, r3            : IntAlu :  D=0x0000000000000001
 276500: system.cpu T0 : @__libc_setup_tls+61    :   b                        : IntAlu : 
 277000: system.cpu T0 : @__libc_setup_tls+43    :   subs   r2, r3, r4        : IntAlu :  D=0x0000000000000001
 277500: system.cpu T0 : @__libc_setup_tls+45    :   adds   r2, r2, r7        : IntAlu :  D=0x0000000000000000
 278000: system.cpu T0 : @__libc_setup_tls+47    :   ldr.w   r2, [r2, #-32]   : MemRead :  D=0x0000000000000001 A=0x8054
 278500: system.cpu T0 : @__libc_setup_tls+51    :   cmps   r2, #7            : IntAlu :  D=0x0000000000000000
 279500: system.cpu T0 : @__libc_setup_tls+53    :   b.w                      : IntAlu : Predicated False
 280000: system.cpu T0 : @__libc_setup_tls+57    :   adds   r3, r3, #32       : IntAlu :  D=0x0000000000000000
 280500: system.cpu T0 : @__libc_setup_tls+59    :   cmps   r5, r3            : IntAlu :  D=0x0000000000000001
 281000: system.cpu T0 : @__libc_setup_tls+61    :   b                        : IntAlu : 
 281500: system.cpu T0 : @__libc_setup_tls+43    :   subs   r2, r3, r4        : IntAlu :  D=0x0000000000000001
 282000: system.cpu T0 : @__libc_setup_tls+45    :   adds   r2, r2, r7        : IntAlu :  D=0x0000000000000000
 282500: system.cpu T0 : @__libc_setup_tls+47    :   ldr.w   r2, [r2, #-32]   : MemRead :  D=0x0000000000000001 A=0x8074
 283000: system.cpu T0 : @__libc_setup_tls+51    :   cmps   r2, #7            : IntAlu :  D=0x0000000000000000
 284000: system.cpu T0 : @__libc_setup_tls+53    :   b.w                      : IntAlu : Predicated False
 284500: system.cpu T0 : @__libc_setup_tls+57    :   adds   r3, r3, #32       : IntAlu :  D=0x0000000000000000
 285000: system.cpu T0 : @__libc_setup_tls+59    :   cmps   r5, r3            : IntAlu :  D=0x0000000000000001
 285500: system.cpu T0 : @__libc_setup_tls+61    :   b                        : IntAlu : 
 286000: system.cpu T0 : @__libc_setup_tls+43    :   subs   r2, r3, r4        : IntAlu :  D=0x0000000000000001
 286500: system.cpu T0 : @__libc_setup_tls+45    :   adds   r2, r2, r7        : IntAlu :  D=0x0000000000000000
 287000: system.cpu T0 : @__libc_setup_tls+47    :   ldr.w   r2, [r2, #-32]   : MemRead :  D=0x0000000000000004 A=0x8094
 287500: system.cpu T0 : @__libc_setup_tls+51    :   cmps   r2, #7            : IntAlu :  D=0x0000000000000000
 288500: system.cpu T0 : @__libc_setup_tls+53    :   b.w                      : IntAlu : Predicated False
 289000: system.cpu T0 : @__libc_setup_tls+57    :   adds   r3, r3, #32       : IntAlu :  D=0x0000000000000000
 289500: system.cpu T0 : @__libc_setup_tls+59    :   cmps   r5, r3            : IntAlu :  D=0x0000000000000001
 290000: system.cpu T0 : @__libc_setup_tls+61    :   b                        : IntAlu : 
 290500: system.cpu T0 : @__libc_setup_tls+43    :   subs   r2, r3, r4        : IntAlu :  D=0x0000000000000001
 291000: system.cpu T0 : @__libc_setup_tls+45    :   adds   r2, r2, r7        : IntAlu :  D=0x0000000000000000
 291500: system.cpu T0 : @__libc_setup_tls+47    :   ldr.w   r2, [r2, #-32]   : MemRead :  D=0x0000000000000007 A=0x80b4
 292000: system.cpu T0 : @__libc_setup_tls+51    :   cmps   r2, #7            : IntAlu :  D=0x0000000000000001
 293000: system.cpu T0 : @__libc_setup_tls+53    :   b.w                      : IntAlu : 
 293500: system.cpu T0 : @__libc_setup_tls+319    :   ldr   r4, [r3, #28]      : MemRead :  D=0x0000000000000004 A=0x80d0
 294000: system.cpu T0 : @__libc_setup_tls+321    :   ldr   r2, [r3, #16]      : MemRead :  D=0x0000000000000010 A=0x80c4
 294500: system.cpu T0 : @__libc_setup_tls+323    :   ldr.w   r8, [r3, #20]    : MemRead :  D=0x0000000000000028 A=0x80c8
 295000: system.cpu T0 : @__libc_setup_tls+327    :   cmps   r1, r4            : IntAlu :  D=0x0000000000000001
 295500: system.cpu T0 : @__libc_setup_tls+329    :   it                       : IntAlu : 
 296000: system.cpu T0 : @__libc_setup_tls+331    :   mov   r6, r1             : IntAlu :  D=0x0000000000000010
 296500: system.cpu T0 : @__libc_setup_tls+333    :   mov   r6, r4             : IntAlu : Predicated False
 297000: system.cpu T0 : @__libc_setup_tls+335    :   ldr   r3, [r3, #8]       : MemRead :  D=0x0000000000068fb0 A=0x80bc
 297500: system.cpu T0 : @__libc_setup_tls+337    :   str   r2, [sp, #0]       : MemWrite :  D=0x0000000000000010 A=0xbefffdb0
 298000: system.cpu T0 : @__libc_setup_tls+339    :   str   r3, [sp, #4]       : MemWrite :  D=0x0000000000068fb0 A=0xbefffdb4
 298500: system.cpu T0 : @__libc_setup_tls+341    :   mov   r9, r3             : IntAlu :  D=0x0000000000068fb0
 299000: system.cpu T0 : @__libc_setup_tls+343    :   cmps   r4, #0            : IntAlu :  D=0x0000000000000001
 300000: system.cpu T0 : @__libc_setup_tls+345    :   b.w                      : IntAlu : Predicated False
 300500: system.cpu T0 : @__libc_setup_tls+349    :   subs   r3, r4, #1        : IntAlu :  D=0x0000000000000001
 301000: system.cpu T0 : @__libc_setup_tls+351    :   mov   r1, r4             : IntAlu :  D=0x0000000000000004
 301500: system.cpu T0 : @__libc_setup_tls+353    :   adds   r0, r3, r0        : IntAlu :  D=0x0000000000000000
 302000: system.cpu T0 : @__libc_setup_tls+355    :   ldr.w   r9, [sp, #4]     : MemRead :  D=0x0000000000068fb0 A=0xbefffdb4
 302500: system.cpu T0 : @__libc_setup_tls+359    :   bl.w                     : IntAlu :  D=0x0000000000008d29
 303000: system.cpu T0 : @.udivsi3_skip_div0_test    :   subs   r2, r1, #1        : IntAlu :  D=0x0000000000000001
 303500: system.cpu T0 : @__aeabi_uidiv+1    :   it                       : IntAlu : 
 304000: system.cpu T0 : @__aeabi_uidiv+3    :   bx                       : IntAlu : Predicated False
 305000: system.cpu T0 : @__aeabi_uidiv+5    :   b.w                      : IntAlu : Predicated False
 305500: system.cpu T0 : @__aeabi_uidiv+9    :   cmps   r0, r1            : IntAlu :  D=0x0000000000000001
 306000: system.cpu T0 : @__aeabi_uidiv+11    :   b.w                      : IntAlu : Predicated False
 306500: system.cpu T0 : @__aeabi_uidiv+15    :   tsts   r1, r2            : IntAlu :  D=0x0000000000000001
 307500: system.cpu T0 : @__aeabi_uidiv+17    :   b.w                      : IntAlu : 
 308000: system.cpu T0 : @__aeabi_uidiv+579    :   clz.w   r2, r1           : IntAlu :  D=0x000000000000001d
 308500: system.cpu T0 : @__aeabi_uidiv+583    :   rsb.w   r2, r2, #31      : IntAlu :  D=0x0000000000000002
 309000: system.cpu T0 : @__aeabi_uidiv+587    :   mov.w   r0, r0, LSR r2   : IntAlu :  D=0x0000000000000002
 309500: system.cpu T0 : @__aeabi_uidiv+591    :   bx                       : IntAlu : 
 310000: system.cpu T0 : @__libc_setup_tls+363    :   mov   r10, r4            : IntAlu :  D=0x0000000000000004
 310500: system.cpu T0 : @__libc_setup_tls+365    :   b                        : IntAlu : 
 311000: system.cpu T0 : @__libc_setup_tls+85    :   ldr   r7, [pc, #300]     : MemRead :  D=0x0000000000069078 A=0x8d40
 311500: system.cpu T0 : @__libc_setup_tls+87    :   mov.w   fp, #1           : IntAlu :  D=0x0000000000000001
 312000: system.cpu T0 : @__libc_setup_tls+91    :   mul.w                    : IntMult :  D=0x0000000000000008
 312500: system.cpu T0 : @__libc_setup_tls+95    :   ldr   r4, [pc, #292]     : MemRead :  D=0x0000000000069c28 A=0x8d44
 313000: system.cpu T0 : @__libc_setup_tls+97    :   ldr   r0, [r7, #0]       : MemRead :  D=0x0000000000000800 A=0x69078
 313500: system.cpu T0 : @__libc_setup_tls+99    :   add.w   r0, r0, #1216    : IntAlu :  D=0x0000000000000cc0
 314000: system.cpu T0 : @__libc_setup_tls+103    :   add   r0, r0, r8         : IntAlu :  D=0x0000000000000ce8
 314500: system.cpu T0 : @__libc_setup_tls+105    :   adds   r0, r0, r6        : IntAlu :  D=0x0000000000000000
 315000: system.cpu T0 : @__libc_setup_tls+107    :   adds   r0, r0, r5        : IntAlu :  D=0x0000000000000000
 316000: system.cpu T0 : @__libc_setup_tls+109    :   bl.w                     : IntAlu :  D=0x0000000000008c2f
 316500: system.cpu T0 : @fcntl+155    : ldmstm                    
 316500: system.cpu T0 : @fcntl+155.0  :   str_uop   r4, [sp, #16]  : MemWrite :  D=0x0000000000069c28 A=0xbefffda0
 317000: system.cpu T0 : @fcntl+155.1  :   str_uop   r5, [sp, #12]  : MemWrite :  D=0x0000000000000008 A=0xbefffda4
 317500: system.cpu T0 : @fcntl+155.2  :   str_uop   r6, [sp, #8]   : MemWrite :  D=0x0000000000000010 A=0xbefffda8
 318000: system.cpu T0 : @fcntl+155.3  :   str_uop   lr, [sp, #4]   : MemWrite :  D=0x0000000000008c2f A=0xbefffdac
 318500: system.cpu T0 : @fcntl+155.4  :   subi_uop   sp, sp, #16   : IntAlu :  D=0x00000000befffda0
 319000: system.cpu T0 : @sbrk+1    :   mov   r5, r0             : IntAlu :  D=0x0000000000000d00
 319500: system.cpu T0 : @sbrk+3    :   ldr   r6, [pc, #68]      : MemRead :  D=0x000000000006acb8 A=0x1078c
 320000: system.cpu T0 : @sbrk+5    :   ldr   r4, [r6, #0]       : MemRead :  D=0x0000000000000000 A=0x6acb8
 320500: system.cpu T0 : @sbrk+7    :   cbz                      : IntAlu : 
 321000: system.cpu T0 : @sbrk+43    :   movs   r0, #0            : IntAlu :  D=0x0000000000000001
 322000: system.cpu T0 : @sbrk+45    :   bl.w                     : IntAlu :  D=0x0000000000010773
 322500: system.cpu T0 : @__getrlimit+43    : ldmstm                    
 322500: system.cpu T0 : @__getrlimit+43.0  :   str_uop   lr, [sp, #4]   : MemWrite :  D=0x0000000000010773 A=0xbefffd9c
 323000: system.cpu T0 : @__getrlimit+43.1  :   subi_uop   sp, sp, #4    : IntAlu :  D=0x00000000befffd9c
 323500: system.cpu T0 : @brk+1    :   mov   r3, r0             : IntAlu :  D=0x0000000000000000
 324000: system.cpu T0 : @brk+3    :   mov.w   r12, #45         : IntAlu :  D=0x000000000000002d
 324500: system.cpu T0 : @brk+7    :   bl.w                     : IntAlu :  D=0x0000000000026b51
 325000: system.cpu T0 : @__libc_csu_fini+47    : ldmstm                    
 325000: system.cpu T0 : @__libc_csu_fini+47.0  :   str_uop   r7, [sp, #8]   : MemWrite :  D=0x0000000000069078 A=0xbefffd94
 325500: system.cpu T0 : @__libc_csu_fini+47.1  :   str_uop   lr, [sp, #4]   : MemWrite :  D=0x0000000000026b51 A=0xbefffd98
 326000: system.cpu T0 : @__libc_csu_fini+47.2  :   subi_uop   sp, sp, #8    : IntAlu :  D=0x00000000befffd94
 326500: system.cpu T0 : @__libc_do_syscall+1    :   mov   r7, r12            : IntAlu :  D=0x000000000000002d
 327000: system.cpu T0 : @__libc_do_syscall+3    :   svc   #0                 : IntAlu : 
 327500: system.cpu T0 : @__libc_do_syscall+5    : ldmstm                    
 327500: system.cpu T0 : @__libc_do_syscall+5.0  :   ldr2_uop   r7,r36, [sp, #0] : MemRead :  D=0x0000000000026b51 A=0xbefffd94
 328000: system.cpu T0 : @__libc_do_syscall+5.1  :   addi_uop   sp, sp, #8    : IntAlu :  D=0x00000000befffd9c
 328500: system.cpu T0 : @__libc_do_syscall+5.2  :   uopReg_uop   pc, r36     : IntAlu :  D=0x0000000000026b51
 329000: system.cpu T0 : @brk+11    :   cmns.w   r0, #4096       : IntAlu :  D=0x0000000000000000
 329500: system.cpu T0 : @brk+15    :   b                        : IntAlu : Predicated False
 330000: system.cpu T0 : @brk+17    :   ldr   r2, [pc, #64]      : MemRead :  D=0x000000000006acb8 A=0x26b98
 330500: system.cpu T0 : @brk+19    :   cmps   r3, r0            : IntAlu :  D=0x0000000000000000
 331000: system.cpu T0 : @brk+21    :   str   r0, [r2, #0]       : MemWrite :  D=0x000000000006c000 A=0x6acb8
 331500: system.cpu T0 : @brk+23    :   b                        : IntAlu : Predicated False
 332000: system.cpu T0 : @brk+25    :   movs   r0, #0            : IntAlu :  D=0x0000000000000001
 332500: system.cpu T0 : @brk+27    :   ldr.w   pc, [sp] #4     
 332500: system.cpu T0 : @brk+27.0  :   ldr.w   r35, [sp] #4     : MemRead :  D=0x0000000000010773 A=0xbefffd9c
 333000: system.cpu T0 : @brk+27.1  :   addi_uop.w   sp, sp, #4  : IntAlu :  D=0x00000000befffda0
 333500: system.cpu T0 : @brk+27.2  :   uopReg_uop.w   pc, r35   : IntAlu :  D=0x0000000000010773
 334000: system.cpu T0 : @sbrk+49    :   cmps   r0, #0            : IntAlu :  D=0x0000000000000001
 334500: system.cpu T0 : @sbrk+51    :   b                        : IntAlu : Predicated False
 335000: system.cpu T0 : @sbrk+53    :   ldr   r4, [r6, #0]       : MemRead :  D=0x000000000006c000 A=0x6acb8
 335500: system.cpu T0 : @sbrk+55    :   b                        : IntAlu : 
 336000: system.cpu T0 : @sbrk+15    :   cmps   r5, #0            : IntAlu :  D=0x0000000000000001
 336500: system.cpu T0 : @sbrk+17    :   b                        : IntAlu : Predicated False
 337000: system.cpu T0 : @sbrk+19    :   b                        : IntAlu : Predicated False
 337500: system.cpu T0 : @sbrk+21    :   adds   r0, r4, r5        : IntAlu :  D=0x0000000000000000
 338000: system.cpu T0 : @sbrk+23    :   b                        : IntAlu : Predicated False
 339000: system.cpu T0 : @sbrk+25    :   bl.w                     : IntAlu :  D=0x000000000001075f
 339500: system.cpu T0 : @__getrlimit+43    : ldmstm                    
 339500: system.cpu T0 : @__getrlimit+43.0  :   str_uop   lr, [sp, #4]   : MemWrite :  D=0x000000000001075f A=0xbefffd9c
 340000: system.cpu T0 : @__getrlimit+43.1  :   subi_uop   sp, sp, #4    : IntAlu :  D=0x00000000befffd9c
 340500: system.cpu T0 : @brk+1    :   mov   r3, r0             : IntAlu :  D=0x000000000006cd00
 341000: system.cpu T0 : @brk+3    :   mov.w   r12, #45         : IntAlu :  D=0x000000000000002d
 341500: system.cpu T0 : @brk+7    :   bl.w                     : IntAlu :  D=0x0000000000026b51
 342000: system.cpu T0 : @__libc_csu_fini+47    : ldmstm                    
 342000: system.cpu T0 : @__libc_csu_fini+47.0  :   str_uop   r7, [sp, #8]   : MemWrite :  D=0x0000000000069078 A=0xbefffd94
 342500: system.cpu T0 : @__libc_csu_fini+47.1  :   str_uop   lr, [sp, #4]   : MemWrite :  D=0x0000000000026b51 A=0xbefffd98
 343000: system.cpu T0 : @__libc_csu_fini+47.2  :   subi_uop   sp, sp, #8    : IntAlu :  D=0x00000000befffd94
 343500: system.cpu T0 : @__libc_do_syscall+1    :   mov   r7, r12            : IntAlu :  D=0x000000000000002d
 344000: system.cpu T0 : @__libc_do_syscall+3    :   svc   #0                 : IntAlu : 
 344500: system.cpu T0 : @__libc_do_syscall+5    : ldmstm                    
 344500: system.cpu T0 : @__libc_do_syscall+5.0  :   ldr2_uop   r7,r36, [sp, #0] : MemRead :  D=0x0000000000026b51 A=0xbefffd94
 345000: system.cpu T0 : @__libc_do_syscall+5.1  :   addi_uop   sp, sp, #8    : IntAlu :  D=0x00000000befffd9c
 345500: system.cpu T0 : @__libc_do_syscall+5.2  :   uopReg_uop   pc, r36     : IntAlu :  D=0x0000000000026b51
 346000: system.cpu T0 : @brk+11    :   cmns.w   r0, #4096       : IntAlu :  D=0x0000000000000000
 346500: system.cpu T0 : @brk+15    :   b                        : IntAlu : Predicated False
 347000: system.cpu T0 : @brk+17    :   ldr   r2, [pc, #64]      : MemRead :  D=0x000000000006acb8 A=0x26b98
 347500: system.cpu T0 : @brk+19    :   cmps   r3, r0            : IntAlu :  D=0x0000000000000001
 348000: system.cpu T0 : @brk+21    :   str   r0, [r2, #0]       : MemWrite :  D=0x000000000006cd00 A=0x6acb8
 348500: system.cpu T0 : @brk+23    :   b                        : IntAlu : Predicated False
 349000: system.cpu T0 : @brk+25    :   movs   r0, #0            : IntAlu :  D=0x0000000000000001
 349500: system.cpu T0 : @brk+27    :   ldr.w   pc, [sp] #4     
 349500: system.cpu T0 : @brk+27.0  :   ldr.w   r35, [sp] #4     : MemRead :  D=0x000000000001075f A=0xbefffd9c
 350000: system.cpu T0 : @brk+27.1  :   addi_uop.w   sp, sp, #4  : IntAlu :  D=0x00000000befffda0
 350500: system.cpu T0 : @brk+27.2  :   uopReg_uop.w   pc, r35   : IntAlu :  D=0x000000000001075f
 351500: system.cpu T0 : @sbrk+29    :   bics.w   r4, r4, r0, ASR #32 : IntAlu :  D=0x0000000000000000
 352000: system.cpu T0 : @sbrk+33    :   it                       : IntAlu : 
 352500: system.cpu T0 : @sbrk+35    :   mov.w   r4, #4294967295  : IntAlu : Predicated False
 353000: system.cpu T0 : @sbrk+39    :   mov   r0, r4             : IntAlu :  D=0x000000000006c000
 353500: system.cpu T0 : @sbrk+41    : ldmstm                    
 353500: system.cpu T0 : @sbrk+41.0  :   ldr2_uop   r4,r5, [sp, #0] : MemRead :  D=0x0000000000000008 A=0xbefffda0
 354000: system.cpu T0 : @sbrk+41.1  :   ldr2_uop   r6,r36, [sp, #8] : MemRead :  D=0x0000000000008c2f A=0xbefffda8
 354500: system.cpu T0 : @sbrk+41.2  :   addi_uop   sp, sp, #16   : IntAlu :  D=0x00000000befffdb0
 355000: system.cpu T0 : @sbrk+41.3  :   uopReg_uop   pc, r36     : IntAlu :  D=0x0000000000008c2f
 355500: system.cpu T0 : @__libc_setup_tls+113    :   mov   r1, r9             : IntAlu :  D=0x0000000000068fb0
 356000: system.cpu T0 : @__libc_setup_tls+115    :   rsb.w   lr, r6, #0       : IntAlu :  D=0x00000000fffffff0
 356500: system.cpu T0 : @__libc_setup_tls+119    :   movs   r3, #62           : IntAlu :  D=0x0000000000000000
 357000: system.cpu T0 : @__libc_setup_tls+121    :   ldr   r2, [sp, #0]       : MemRead :  D=0x0000000000000010 A=0xbefffdb0
 357500: system.cpu T0 : @__libc_setup_tls+123    :   str   r3, [r4, #0]       : MemWrite :  D=0x000000000000003e A=0x69c28
 358500: system.cpu T0 : @__libc_setup_tls+125    :   str.w   r5, [r4, #1084]  : MemWrite :  D=0x0000000000000008 A=0x6a064
 359500: system.cpu T0 : @__libc_setup_tls+129    :   strb.w   fp, [r4, #20]   : MemWrite :  D=0x0000000000000001 A=0x69c3c
 360500: system.cpu T0 : @__libc_setup_tls+133    :   add.w   r9, r0, r6       : IntAlu :  D=0x000000000006c010
 361500: system.cpu T0 : @__libc_setup_tls+137    :   add.w   r9, r9, #1215    : IntAlu :  D=0x000000000006c4cf
 362500: system.cpu T0 : @__libc_setup_tls+141    :   and.w   r9, r9, lr       : IntAlu :  D=0x000000000006c4c0
 363500: system.cpu T0 : @__libc_setup_tls+145    :   add.w   r0, r9, r5       : IntAlu :  D=0x000000000006c4c8
 364000: system.cpu T0 : @__libc_setup_tls+149    :   str   r0, [r4, #16]      : MemWrite :  D=0x000000000006c4c8 A=0x69c38
 364500: system.cpu T0 : @__libc_setup_tls+151    :   blx.w                    : IntAlu :  D=0x0000000000008c59
 365000: system.cpu T0 : @memcpy    : ldmstm                    
 365000: system.cpu T0 : @memcpy.0  :   str_uop   r0, [sp, #12]  : MemWrite :  D=0x000000000006c4c8 A=0xbefffda4
 365500: system.cpu T0 : @memcpy.1  :   str_uop   r4, [sp, #8]   : MemWrite :  D=0x0000000000069c28 A=0xbefffda8
 366000: system.cpu T0 : @memcpy.2  :   str_uop   lr, [sp, #4]   : MemWrite :  D=0x0000000000008c59 A=0xbefffdac
 366500: system.cpu T0 : @memcpy.3  :   subi_uop   sp, sp, #12   : IntAlu :  D=0x00000000befffda4
 367000: system.cpu T0 : @memcpy+4    :   subs   r2, r2, #4        : IntAlu :  D=0x0000000000000001
 367500: system.cpu T0 : @memcpy+8    :   blt                      : IntAlu : Predicated False
 368000: system.cpu T0 : @memcpy+12    :   ands   r12, r0, #3       : IntAlu :  D=0x0000000000000001
 368500: system.cpu T0 : @memcpy+16    :   pldw   r34, [r1, #0]     : MemRead :  D=0x0000000000000054 A=0x68fb0
 369000: system.cpu T0 : @memcpy+20    :   bne                      : IntAlu : Predicated False
 369500: system.cpu T0 : @memcpy+24    :   ands   r12, r1, #3       : IntAlu :  D=0x0000000000000001
 370000: system.cpu T0 : @memcpy+28    :   bne                      : IntAlu : Predicated False
 370500: system.cpu T0 : @memcpy+32    :   subs   r2, r2, #28       : IntAlu :  D=0x0000000000000000
 371000: system.cpu T0 : @memcpy+36    : ldmstm                    
 371000: system.cpu T0 : @memcpy+36.0  :   str_uop   r5, [sp, #16]  : MemWrite :  D=0x0000000000000008 A=0xbefffd94
 371500: system.cpu T0 : @memcpy+36.1  :   str_uop   r6, [sp, #12]  : MemWrite :  D=0x0000000000000010 A=0xbefffd98
 372000: system.cpu T0 : @memcpy+36.2  :   str_uop   r7, [sp, #8]   : MemWrite :  D=0x0000000000069078 A=0xbefffd9c
 372500: system.cpu T0 : @memcpy+36.3  :   str_uop   r8, [sp, #4]   : MemWrite :  D=0x0000000000000028 A=0xbefffda0
 373000: system.cpu T0 : @memcpy+36.4  :   subi_uop   sp, sp, #16   : IntAlu :  D=0x00000000befffd94
 373500: system.cpu T0 : @memcpy+40    :   blt                      : IntAlu : 
 374000: system.cpu T0 : @memcpy+96    :   ands   r12, r2, #28      : IntAlu :  D=0x0000000000000000
 374500: system.cpu T0 : @memcpy+100    :   rsb   r12, r12, #32      : IntAlu :  D=0x0000000000000010
 375000: system.cpu T0 : @memcpy+104    :   addne   pc, pc, r12      : IntAlu :  D=0x000000000000ff70
 375500: system.cpu T0 : @memcpy+128    :   ldr   r6, [r1] #4       
 375500: system.cpu T0 : @memcpy+128.0  :   ldr   r6, [r1] #4        : MemRead :  D=0x0000000000069b54 A=0x68fb0
 376000: system.cpu T0 : @memcpy+128.1  :   addi_uop   r1, r1, #4    : IntAlu :  D=0x0000000000068fb4
 376500: system.cpu T0 : @memcpy+132    :   ldr   r7, [r1] #4       
 376500: system.cpu T0 : @memcpy+132.0  :   ldr   r7, [r1] #4        : MemRead :  D=0x0000000000069b54 A=0x68fb4
 377000: system.cpu T0 : @memcpy+132.1  :   addi_uop   r1, r1, #4    : IntAlu :  D=0x0000000000068fb8
 377500: system.cpu T0 : @memcpy+136    :   ldr   r8, [r1] #4       
 377500: system.cpu T0 : @memcpy+136.0  :   ldr   r8, [r1] #4        : MemRead :  D=0x0000000000069b64 A=0x68fb8
 378000: system.cpu T0 : @memcpy+136.1  :   addi_uop   r1, r1, #4    : IntAlu :  D=0x0000000000068fbc
 378500: system.cpu T0 : @memcpy+140    :   ldr   lr, [r1] #4       
 378500: system.cpu T0 : @memcpy+140.0  :   ldr   lr, [r1] #4        : MemRead :  D=0x0000000000069b58 A=0x68fbc
 379000: system.cpu T0 : @memcpy+140.1  :   addi_uop   r1, r1, #4    : IntAlu :  D=0x0000000000068fc0
 379500: system.cpu T0 : @memcpy+144    :   add   pc, pc, r12        : IntAlu :  D=0x000000000000ff98
 380000: system.cpu T0 : @memcpy+168    :   str   r6, [r0] #4       
 380000: system.cpu T0 : @memcpy+168.0  :   str   r6, [r0] #4        : MemWrite :  D=0x0000000000069b54 A=0x6c4c8
 380500: system.cpu T0 : @memcpy+168.1  :   addi_uop   r0, r0, #4    : IntAlu :  D=0x000000000006c4cc
 381000: system.cpu T0 : @memcpy+172    :   str   r7, [r0] #4       
 381000: system.cpu T0 : @memcpy+172.0  :   str   r7, [r0] #4        : MemWrite :  D=0x0000000000069b54 A=0x6c4cc
 381500: system.cpu T0 : @memcpy+172.1  :   addi_uop   r0, r0, #4    : IntAlu :  D=0x000000000006c4d0
 382000: system.cpu T0 : @memcpy+176    :   str   r8, [r0] #4       
 382000: system.cpu T0 : @memcpy+176.0  :   str   r8, [r0] #4        : MemWrite :  D=0x0000000000069b64 A=0x6c4d0
 382500: system.cpu T0 : @memcpy+176.1  :   addi_uop   r0, r0, #4    : IntAlu :  D=0x000000000006c4d4
 383000: system.cpu T0 : @memcpy+180    :   str   lr, [r0] #4       
 383000: system.cpu T0 : @memcpy+180.0  :   str   lr, [r0] #4        : MemWrite :  D=0x0000000000069b58 A=0x6c4d4
 383500: system.cpu T0 : @memcpy+180.1  :   addi_uop   r0, r0, #4    : IntAlu :  D=0x000000000006c4d8
 384000: system.cpu T0 : @memcpy+184    : ldmstm                    
 384000: system.cpu T0 : @memcpy+184.0  :   ldr2_uop   r5,r6, [sp, #0] : MemRead :  D=0x0000000000000010 A=0xbefffd94
 384500: system.cpu T0 : @memcpy+184.1  :   ldr2_uop   r7,r8, [sp, #8] : MemRead :  D=0x0000000000000028 A=0xbefffd9c
 385000: system.cpu T0 : @memcpy+184.2  :   addi_uop   sp, sp, #16   : IntAlu :  D=0x00000000befffda4
 385500: system.cpu T0 : @memcpy+188    :   movs   r2, r2, LSL #31   : IntAlu :  D=0x0000000000000001
 386000: system.cpu T0 : @memcpy+192    :   ldrbne   r3, [r1] #1    
 386000: system.cpu T0 : @memcpy+192.0  :   ldrbne   r3, [r1] #1     : MemRead : Predicated False
 386500: system.cpu T0 : @memcpy+192.1  :   addi_uopne   r1, r1, #1  : IntAlu : Predicated False
 387000: system.cpu T0 : @memcpy+196    :   ldrbcs   r4, [r1] #1    
 387000: system.cpu T0 : @memcpy+196.0  :   ldrbcs   r4, [r1] #1     : MemRead : Predicated False
 387500: system.cpu T0 : @memcpy+196.1  :   addi_uopcs   r1, r1, #1  : IntAlu : Predicated False
 388000: system.cpu T0 : @memcpy+200    :   ldrbcs   r12, [r1, #0]   : MemRead : Predicated False
 388500: system.cpu T0 : @memcpy+204    :   strbne   r3, [r0] #1    
 388500: system.cpu T0 : @memcpy+204.0  :   strbne   r3, [r0] #1     : MemWrite : Predicated False
 389000: system.cpu T0 : @memcpy+204.1  :   addi_uopne   r0, r0, #1  : IntAlu : Predicated False
 389500: system.cpu T0 : @memcpy+208    :   strbcs   r4, [r0] #1    
 389500: system.cpu T0 : @memcpy+208.0  :   strbcs   r4, [r0] #1     : MemWrite : Predicated False
 390000: system.cpu T0 : @memcpy+208.1  :   addi_uopcs   r0, r0, #1  : IntAlu : Predicated False
 390500: system.cpu T0 : @memcpy+212    :   strbcs   r12, [r0, #0]   : MemWrite : Predicated False
 391000: system.cpu T0 : @memcpy+216    : ldmstm                    
 391000: system.cpu T0 : @memcpy+216.0  :   ldr2_uop   r0,r4, [sp, #0] : MemRead :  D=0x0000000000069c28 A=0xbefffda4
 391500: system.cpu T0 : @memcpy+216.1  :   ldr_uop   r36, [sp, #8]  : MemRead :  D=0x0000000000008c59 A=0xbefffdac
 392000: system.cpu T0 : @memcpy+216.2  :   addi_uop   sp, sp, #12   : IntAlu :  D=0x00000000befffdb0
 392500: system.cpu T0 : @memcpy+216.3  :   uopReg_uop   pc, r36     : IntAlu :  D=0x0000000000008c59
 393000: system.cpu T0 : @__libc_setup_tls+155    :   add.w   r3, r4, #8       : IntAlu :  D=0x0000000000069c30
 393500: system.cpu T0 : @__libc_setup_tls+159    :   mov   r0, r9             : IntAlu :  D=0x000000000006c4c0
 394500: system.cpu T0 : @__libc_setup_tls+161    :   str.w   r3, [r9, #0]     : MemWrite :  D=0x0000000000069c30 A=0x6c4c0
 395500: system.cpu T0 : @__libc_setup_tls+165    :   mov.w   r12, #5          : IntAlu :  D=0x0000000000000005
 396500: system.cpu T0 : @__libc_setup_tls+169    :   movt.w   r12, r12, #15   : IntAlu :  D=0x00000000000f0005
 397500: system.cpu T0 : @__libc_setup_tls+173    :   bl.w                     : IntAlu :  D=0x0000000000008c6f
 398000: system.cpu T0 : @__libc_csu_fini+47    : ldmstm                    
 398000: system.cpu T0 : @__libc_csu_fini+47.0  :   str_uop   r7, [sp, #8]   : MemWrite :  D=0x0000000000069078 A=0xbefffda8
 398500: system.cpu T0 : @__libc_csu_fini+47.1  :   str_uop   lr, [sp, #4]   : MemWrite :  D=0x0000000000008c6f A=0xbefffdac
[...]
3191500: system.cpu T0 : @_IO_default_xsgetn+95.2  :   str_uop   r5, [sp, #16]  : MemWrite :  D=0x000000000006c000 A=0xbefffd98
3192000: system.cpu T0 : @_IO_default_xsgetn+95.3  :   str_uop   r6, [sp, #12]  : MemWrite :  D=0x000000000006a4a8 A=0xbefffd9c
3192500: system.cpu T0 : @_IO_default_xsgetn+95.4  :   str_uop   r7, [sp, #8]   : MemWrite :  D=0x0000000000000000 A=0xbefffda0
3193000: system.cpu T0 : @_IO_default_xsgetn+95.5  :   str_uop   lr, [sp, #4]   : MemWrite :  D=0x00000000000203a1 A=0xbefffda4
3193500: system.cpu T0 : @_IO_default_xsgetn+95.6  :   subi_uop   sp, sp, #24   : IntAlu :  D=0x00000000befffd90
3194000: system.cpu T0 : @_IO_default_setbuf+1    :   mov   r4, r0             : IntAlu :  D=0x0000000000069128
3194500: system.cpu T0 : @_IO_default_setbuf+3    :   ldr.w   r3, [r0, #152]   : MemRead :  D=0x000000000004df10 A=0x691c0
3195000: system.cpu T0 : @_IO_default_setbuf+7    :   mov   r7, r1             : IntAlu :  D=0x0000000000000000
3195500: system.cpu T0 : @_IO_default_setbuf+9    :   mov   r6, r2             : IntAlu :  D=0x0000000000000000
3196000: system.cpu T0 : @_IO_default_setbuf+11    :   ldr   r3, [r3, #48]      : MemRead :  D=0x00000000000207d9 A=0x4df40
3196500: system.cpu T0 : @_IO_default_setbuf+13    :   blx                      : IntAlu :  D=0x0000000000009f5d
3197000: system.cpu T0 : @_IO_do_write+27    :   ldr   r2, [r0, #20]      : MemRead :  D=0x000000003fffe000 A=0x6913c
3197500: system.cpu T0 : @_IO_file_sync+1    :   ldr   r1, [r0, #16]      : MemRead :  D=0x000000003fffe000 A=0x69138
3198000: system.cpu T0 : @_IO_file_sync+3    : ldmstm                    
3198000: system.cpu T0 : @_IO_file_sync+3.0  :   str_uop   r4, [sp, #12]  : MemWrite :  D=0x0000000000069128 A=0xbefffd84
3198500: system.cpu T0 : @_IO_file_sync+3.1  :   str_uop   r5, [sp, #8]   : MemWrite :  D=0x000000000006c000 A=0xbefffd88
3199000: system.cpu T0 : @_IO_file_sync+3.2  :   str_uop   lr, [sp, #4]   : MemWrite :  D=0x0000000000009f5d A=0xbefffd8c
3199500: system.cpu T0 : @_IO_file_sync+3.3  :   subi_uop   sp, sp, #12   : IntAlu :  D=0x00000000befffd84
3200000: system.cpu T0 : @_IO_file_sync+5    :   cmps   r2, r1            : IntAlu :  D=0x0000000000000001
3200500: system.cpu T0 : @_IO_file_sync+7    :   sub   sp, sp, #12        : IntAlu :  D=0x00000000befffd78
3201000: system.cpu T0 : @_IO_file_sync+9    :   mov   r4, r0             : IntAlu :  D=0x0000000000069128
3201500: system.cpu T0 : @_IO_file_sync+11    :   b                        : IntAlu : 
3202000: system.cpu T0 : @_IO_file_sync+43    :   ldr   r1, [r4, #4]       : MemRead :  D=0x000000003fffe000 A=0x6912c
3202500: system.cpu T0 : @_IO_file_sync+45    :   ldr   r3, [r4, #8]       : MemRead :  D=0x000000003fffe000 A=0x69130
3203000: system.cpu T0 : @_IO_file_sync+47    :   subs   r1, r1, r3        : IntAlu :  D=0x0000000000000001
3203500: system.cpu T0 : @_IO_file_sync+49    :   b                        : IntAlu : Predicated False
3204000: system.cpu T0 : @_IO_file_sync+51    :   movs   r0, #0            : IntAlu :  D=0x0000000000000001
3205000: system.cpu T0 : @_IO_file_sync+53    :   mov.w   r2, #4294967295  : IntAlu :  D=0x00000000ffffffff
3206000: system.cpu T0 : @_IO_file_sync+57    :   mov.w   r3, #4294967295  : IntAlu :  D=0x00000000ffffffff
3207000: system.cpu T0 : @_IO_file_sync+61    :   strd.w   r2, r3, [r4, #80] : MemWrite :  D=0xffffffffffffffff A=0x69178
3207500: system.cpu T0 : @_IO_file_sync+65    :   add   sp, sp, #12        : IntAlu :  D=0x00000000befffd84
3208000: system.cpu T0 : @_IO_file_sync+67    : ldmstm                    
3208000: system.cpu T0 : @_IO_file_sync+67.0  :   ldr2_uop   r4,r5, [sp, #0] : MemRead :  D=0x000000000006c000 A=0xbefffd84
3208500: system.cpu T0 : @_IO_file_sync+67.1  :   ldr_uop   r36, [sp, #8]  : MemRead :  D=0x0000000000009f5d A=0xbefffd8c
3209000: system.cpu T0 : @_IO_file_sync+67.2  :   addi_uop   sp, sp, #12   : IntAlu :  D=0x00000000befffd90
3209500: system.cpu T0 : @_IO_file_sync+67.3  :   uopReg_uop   pc, r36     : IntAlu :  D=0x0000000000009f5d
3210000: system.cpu T0 : @_IO_default_setbuf+15    :   adds   r0, r0, #1        : IntAlu :  D=0x0000000000000000
3210500: system.cpu T0 : @_IO_default_setbuf+17    :   b                        : IntAlu : Predicated False
3211000: system.cpu T0 : @_IO_default_setbuf+19    :   cmps   r7, #0            : IntAlu :  D=0x0000000000000001
3211500: system.cpu T0 : @_IO_default_setbuf+21    :   it                       : IntAlu : 
3212000: system.cpu T0 : @_IO_default_setbuf+23    :   cmps   r6, #0            : IntAlu : Predicated False
3212500: system.cpu T0 : @_IO_default_setbuf+25    :   ldr   r5, [r4, #0]       : MemRead :  D=0x00000000fbad2a85 A=0x69128
3213000: system.cpu T0 : @_IO_default_setbuf+27    :   it                       : IntAlu : 
3213500: system.cpu T0 : @_IO_default_setbuf+29    :   mov   r3, #0             : IntAlu : Predicated False
3214000: system.cpu T0 : @_IO_default_setbuf+31    :   mov   r3, #1             : IntAlu :  D=0x0000000000000001
3214500: system.cpu T0 : @_IO_default_setbuf+33    :   b                        : IntAlu : 
3215000: system.cpu T0 : @_IO_default_setbuf+69    :   mov   r1, r4             : IntAlu :  D=0x0000000000069128
3215500: system.cpu T0 : @_IO_default_setbuf+71    :   orr.w   r5, r5, #2       : IntAlu :  D=0x00000000fbad2a87
3216000: system.cpu T0 : @_IO_default_setbuf+75    :   mov   r0, r4             : IntAlu :  D=0x0000000000069128
3217000: system.cpu T0 : @_IO_default_setbuf+77    :   add.w   r2, r4, #72      : IntAlu :  D=0x0000000000069170
3217500: system.cpu T0 : @_IO_default_setbuf+81    :   movs   r3, #0            : IntAlu :  D=0x0000000000000001
3218000: system.cpu T0 : @_IO_default_setbuf+83    :   str.w   r5, [r1] #71    
3218000: system.cpu T0 : @_IO_default_setbuf+83.0  :   str.w   r5, [r1] #71     : MemWrite :  D=0x00000000fbad2a87 A=0x69128
3218500: system.cpu T0 : @_IO_default_setbuf+83.1  :   addi_uop.w   r1, r1, #71 : IntAlu :  D=0x000000000006916f
3219000: system.cpu T0 : @_IO_default_setbuf+87    :   bl.w                     : IntAlu :  D=0x0000000000009fa9
3219500: system.cpu T0 : @__uflow+147    : ldmstm                    
3219500: system.cpu T0 : @__uflow+147.0  :   str_uop   r3, [sp, #24]  : MemWrite :  D=0x0000000000000000 A=0xbefffd78
3220000: system.cpu T0 : @__uflow+147.1  :   str_uop   r4, [sp, #20]  : MemWrite :  D=0x0000000000069128 A=0xbefffd7c
3220500: system.cpu T0 : @__uflow+147.2  :   str_uop   r5, [sp, #16]  : MemWrite :  D=0x00000000fbad2a87 A=0xbefffd80
3221000: system.cpu T0 : @__uflow+147.3  :   str_uop   r6, [sp, #12]  : MemWrite :  D=0x0000000000000000 A=0xbefffd84
3221500: system.cpu T0 : @__uflow+147.4  :   str_uop   r7, [sp, #8]   : MemWrite :  D=0x0000000000000000 A=0xbefffd88
3222000: system.cpu T0 : @__uflow+147.5  :   str_uop   lr, [sp, #4]   : MemWrite :  D=0x0000000000009fa9 A=0xbefffd8c
3222500: system.cpu T0 : @__uflow+147.6  :   subi_uop   sp, sp, #24   : IntAlu :  D=0x00000000befffd78
3223000: system.cpu T0 : @_IO_setb+1    :   mov   r5, r1             : IntAlu :  D=0x000000000006916f
3223500: system.cpu T0 : @_IO_setb+3    :   ldr   r1, [r0, #28]      : MemRead :  D=0x000000003fffe000 A=0x69144
3224000: system.cpu T0 : @_IO_setb+5    :   mov   r7, r3             : IntAlu :  D=0x0000000000000000
3224500: system.cpu T0 : @_IO_setb+7    :   mov   r4, r0             : IntAlu :  D=0x0000000000069128
3225000: system.cpu T0 : @_IO_setb+9    :   mov   r6, r2             : IntAlu :  D=0x0000000000069170
3225500: system.cpu T0 : @_IO_setb+11    :   ldr   r3, [r0, #0]       : MemRead :  D=0x00000000fbad2a87 A=0x69128
3226000: system.cpu T0 : @_IO_setb+13    :   cbz                      : IntAlu : Predicated False
3226500: system.cpu T0 : @_IO_setb+15    :   movs   r0, r3, LSL #31   : IntAlu :  D=0x0000000000000002
3227000: system.cpu T0 : @_IO_setb+17    :   b                        : IntAlu : Predicated False
3227500: system.cpu T0 : @_IO_setb+19    :   str   r5, [r4, #28]      : MemWrite :  D=0x000000000006916f A=0x69144
3228000: system.cpu T0 : @_IO_setb+21    :   str   r6, [r4, #32]      : MemWrite :  D=0x0000000000069170 A=0x69148
3228500: system.cpu T0 : @_IO_setb+23    :   cbnz                     : IntAlu : Predicated False
3229500: system.cpu T0 : @_IO_setb+25    :   orr.w   r3, r3, #1       : IntAlu :  D=0x00000000fbad2a87
3230000: system.cpu T0 : @_IO_setb+29    :   str   r3, [r4, #0]       : MemWrite :  D=0x00000000fbad2a87 A=0x69128
3230500: system.cpu T0 : @_IO_setb+31    : ldmstm                    
3230500: system.cpu T0 : @_IO_setb+31.0  :   ldr2_uop   r3,r4, [sp, #0] : MemRead :  D=0x0000000000069128 A=0xbefffd78
3231000: system.cpu T0 : @_IO_setb+31.1  :   ldr2_uop   r5,r6, [sp, #8] : MemRead :  D=0x0000000000000000 A=0xbefffd80
3231500: system.cpu T0 : @_IO_setb+31.2  :   ldr2_uop   r7,r36, [sp, #16] : MemRead :  D=0x0000000000009fa9 A=0xbefffd88
3232000: system.cpu T0 : @_IO_setb+31.3  :   addi_uop   sp, sp, #24   : IntAlu :  D=0x00000000befffd90
3232500: system.cpu T0 : @_IO_setb+31.4  :   uopReg_uop   pc, r36     : IntAlu :  D=0x0000000000009fa9
3233000: system.cpu T0 : @_IO_default_setbuf+91    :   b                        : IntAlu : 
3233500: system.cpu T0 : @_IO_default_setbuf+51    :   movs   r3, #0            : IntAlu :  D=0x0000000000000001
3234000: system.cpu T0 : @_IO_default_setbuf+53    :   str   r3, [r4, #24]      : MemWrite :  D=0x0000000000000000 A=0x69140
3234500: system.cpu T0 : @_IO_default_setbuf+55    :   str   r3, [r4, #20]      : MemWrite :  D=0x0000000000000000 A=0x6913c
3235000: system.cpu T0 : @_IO_default_setbuf+57    :   str   r3, [r4, #16]      : MemWrite :  D=0x0000000000000000 A=0x69138
3235500: system.cpu T0 : @_IO_default_setbuf+59    :   str   r3, [r4, #8]       : MemWrite :  D=0x0000000000000000 A=0x69130
3236000: system.cpu T0 : @_IO_default_setbuf+61    :   str   r3, [r4, #4]       : MemWrite :  D=0x0000000000000000 A=0x6912c
3236500: system.cpu T0 : @_IO_default_setbuf+63    :   str   r3, [r4, #12]      : MemWrite :  D=0x0000000000000000 A=0x69134
3237000: system.cpu T0 : @_IO_default_setbuf+65    :   mov   r0, r4             : IntAlu :  D=0x0000000000069128
3237500: system.cpu T0 : @_IO_default_setbuf+67    : ldmstm                    
3237500: system.cpu T0 : @_IO_default_setbuf+67.0  :   ldr2_uop   r3,r4, [sp, #0] : MemRead :  D=0x0000000000069128 A=0xbefffd90
3238000: system.cpu T0 : @_IO_default_setbuf+67.1  :   ldr2_uop   r5,r6, [sp, #8] : MemRead :  D=0x000000000006a4a8 A=0xbefffd98
3238500: system.cpu T0 : @_IO_default_setbuf+67.2  :   ldr2_uop   r7,r36, [sp, #16] : MemRead :  D=0x00000000000203a1 A=0xbefffda0
3239000: system.cpu T0 : @_IO_default_setbuf+67.3  :   addi_uop   sp, sp, #24   : IntAlu :  D=0x00000000befffda8
3239500: system.cpu T0 : @_IO_default_setbuf+67.4  :   uopReg_uop   pc, r36     : IntAlu :  D=0x00000000000203a1
3240000: system.cpu T0 : @_IO_file_setbuf+7    :   cbz                      : IntAlu : Predicated False
3240500: system.cpu T0 : @_IO_file_setbuf+9    :   ldr   r3, [r4, #28]      : MemRead :  D=0x000000000006916f A=0x69144
3241000: system.cpu T0 : @_IO_file_setbuf+11    :   str   r3, [r4, #24]      : MemWrite :  D=0x000000000006916f A=0x69140
3241500: system.cpu T0 : @_IO_file_setbuf+13    :   str   r3, [r4, #20]      : MemWrite :  D=0x000000000006916f A=0x6913c
3242000: system.cpu T0 : @_IO_file_setbuf+15    :   str   r3, [r4, #16]      : MemWrite :  D=0x000000000006916f A=0x69138
3242500: system.cpu T0 : @_IO_file_setbuf+17    :   str   r3, [r4, #12]      : MemWrite :  D=0x000000000006916f A=0x69134
3243000: system.cpu T0 : @_IO_file_setbuf+19    :   str   r3, [r4, #4]       : MemWrite :  D=0x000000000006916f A=0x6912c
3243500: system.cpu T0 : @_IO_file_setbuf+21    :   str   r3, [r4, #8]       : MemWrite :  D=0x000000000006916f A=0x69130
3244000: system.cpu T0 : @_IO_file_setbuf+23    :   mov   r0, r4             : IntAlu :  D=0x0000000000069128
3244500: system.cpu T0 : @_IO_file_setbuf+25    : ldmstm                    
3244500: system.cpu T0 : @_IO_file_setbuf+25.0  :   ldr2_uop   r4,r36, [sp, #0] : MemRead :  D=0x000000000000a3e3 A=0xbefffda8
3245000: system.cpu T0 : @_IO_file_setbuf+25.1  :   addi_uop   sp, sp, #8    : IntAlu :  D=0x00000000befffdb0
3245500: system.cpu T0 : @_IO_file_setbuf+25.2  :   uopReg_uop   pc, r36     : IntAlu :  D=0x000000000000a3e3
3246500: system.cpu T0 : @_IO_cleanup+129    :   cmps.w   r8, #2          : IntAlu :  D=0x0000000000000000
3247000: system.cpu T0 : @_IO_cleanup+133    :   b                        : IntAlu : 
3247500: system.cpu T0 : @_IO_cleanup+201    :   ldr   r0, [r4, #72]      : MemRead :  D=0x000000000006a4d0 A=0x69170
3248000: system.cpu T0 : @_IO_cleanup+203    :   cmps   r0, #0            : IntAlu :  D=0x0000000000000001
3248500: system.cpu T0 : @_IO_cleanup+205    :   b                        : IntAlu : Predicated False
3249000: system.cpu T0 : @_IO_cleanup+207    :   ldr   r3, [r0, #4]       : MemRead :  D=0x0000000000000001 A=0x6a4d4
3249500: system.cpu T0 : @_IO_cleanup+209    :   subs   r3, r3, #1        : IntAlu :  D=0x0000000000000001
3250000: system.cpu T0 : @_IO_cleanup+211    :   str   r3, [r0, #4]       : MemWrite :  D=0x0000000000000000 A=0x6a4d4
3250500: system.cpu T0 : @_IO_cleanup+213    :   cmps   r3, #0            : IntAlu :  D=0x0000000000000001
3251000: system.cpu T0 : @_IO_cleanup+215    :   b                        : IntAlu : Predicated False
3251500: system.cpu T0 : @_IO_cleanup+217    :   str   r3, [r0, #8]       : MemWrite :  D=0x0000000000000000 A=0x6a4d8
3252000: system.cpu T0 : @_IO_cleanup+219    :   ldr   r3, [r0, #0]       : MemRead :  D=0x0000000000000001 A=0x6a4d0
3253000: system.cpu T0 : @_IO_cleanup+221    :   dmb.w   #0               : IntAlu : 
3254000: system.cpu T0 : @_IO_cleanup+225    :   ldrex.w   r2, [r0, #0]   : MemRead :  D=0x0000000000000001 A=0x6a4d0
3254500: system.cpu T0 : @_IO_cleanup+229    :   cmps   r2, r3            : IntAlu :  D=0x0000000000000001
3255000: system.cpu T0 : @_IO_cleanup+231    :   b                        : IntAlu : Predicated False
3256000: system.cpu T0 : @_IO_cleanup+233    :   strex.w   r2, r7, [r0, #0] : MemWrite :  D=0x0000000000000000 A=0x6a4d0
3257000: system.cpu T0 : @_IO_cleanup+237    :   teqs.w   r2, #0          : IntAlu :  D=0x0000000000000001
3257500: system.cpu T0 : @_IO_cleanup+241    :   b                        : IntAlu : Predicated False
3258000: system.cpu T0 : @_IO_cleanup+243    :   mov   r2, r3             : IntAlu :  D=0x0000000000000001
3259000: system.cpu T0 : @_IO_cleanup+245    :   dmb.w   #0               : IntAlu : 
3259500: system.cpu T0 : @_IO_cleanup+249    :   cmps   r3, r2            : IntAlu :  D=0x0000000000000001
3260000: system.cpu T0 : @_IO_cleanup+251    :   b                        : IntAlu : Predicated False
3260500: system.cpu T0 : @_IO_cleanup+253    :   cmps   r3, #1            : IntAlu :  D=0x0000000000000001
3261000: system.cpu T0 : @_IO_cleanup+255    :   b                        : IntAlu : 
3261500: system.cpu T0 : @_IO_cleanup+135    :   mov.w   r3, #4294967295  : IntAlu :  D=0x00000000ffffffff
3262000: system.cpu T0 : @_IO_cleanup+139    :   str   r3, [r4, #108]     : MemWrite :  D=0x00000000ffffffff A=0x69194
3262500: system.cpu T0 : @_IO_cleanup+141    :   ldr   r4, [r4, #52]      : MemRead :  D=0x00000000000691c8 A=0x6915c
3263000: system.cpu T0 : @_IO_cleanup+143    :   cmps   r4, #0            : IntAlu :  D=0x0000000000000001
3263500: system.cpu T0 : @_IO_cleanup+145    :   b                        : IntAlu : 
3264000: system.cpu T0 : @_IO_cleanup+35    :   ldr   r3, [r4, #0]       : MemRead :  D=0x00000000fbad2088 A=0x691c8
3265000: system.cpu T0 : @_IO_cleanup+37    :   ands.w   r8, r3, #2      : IntAlu :  D=0x0000000000000001
3265500: system.cpu T0 : @_IO_cleanup+41    :   b                        : IntAlu : Predicated False
3266000: system.cpu T0 : @_IO_cleanup+43    :   mov.w   r2, #4104        : IntAlu :  D=0x0000000000001008
3266500: system.cpu T0 : @_IO_cleanup+47    :   ands   r2, r2, r3        : IntAlu :  D=0x0000000000000000
3267000: system.cpu T0 : @_IO_cleanup+49    :   cmps   r2, #8            : IntAlu :  D=0x0000000000000001
3267500: system.cpu T0 : @_IO_cleanup+51    :   b                        : IntAlu : 
3268000: system.cpu T0 : @_IO_cleanup+135    :   mov.w   r3, #4294967295  : IntAlu :  D=0x00000000ffffffff
3268500: system.cpu T0 : @_IO_cleanup+139    :   str   r3, [r4, #108]     : MemWrite :  D=0x00000000ffffffff A=0x69234
3269000: system.cpu T0 : @_IO_cleanup+141    :   ldr   r4, [r4, #52]      : MemRead :  D=0x0000000000000000 A=0x691fc
3269500: system.cpu T0 : @_IO_cleanup+143    :   cmps   r4, #0            : IntAlu :  D=0x0000000000000001
3270000: system.cpu T0 : @_IO_cleanup+145    :   b                        : IntAlu : Predicated False
3270500: system.cpu T0 : @_IO_cleanup+147    :   mov   r0, r10            : IntAlu :  D=0x0000000000000000
3271500: system.cpu T0 : @_IO_cleanup+149    : ldmstm                    
3271500: system.cpu T0 : @_IO_cleanup+149.0  :   ldr2_uop.w   r4,r5, [sp, #0] : MemRead :  D=0x00000000000603f0 A=0xbefffdb0
3272000: system.cpu T0 : @_IO_cleanup+149.1  :   ldr2_uop.w   r6,r7, [sp, #8] : MemRead :  D=0x0000000000000001 A=0xbefffdb8
3272500: system.cpu T0 : @_IO_cleanup+149.2  :   ldr2_uop.w   r8,r9, [sp, #16] : MemRead :  D=0x0000000000000000 A=0xbefffdc0
3273000: system.cpu T0 : @_IO_cleanup+149.3  :   ldr2_uop.w   r10,r36, [sp, #24] : MemRead :  D=0x0000000000009085 A=0xbefffdc8
3273500: system.cpu T0 : @_IO_cleanup+149.4  :   addi_uop.w   sp, sp, #32 : IntAlu :  D=0x00000000befffdd0
3274000: system.cpu T0 : @_IO_cleanup+149.5  :   uopReg_uop.w   pc, r36   : IntAlu :  D=0x0000000000009085
3274500: system.cpu T0 : @__run_exit_handlers+87    :   cmps   r5, r6            : IntAlu :  D=0x0000000000000001
3275000: system.cpu T0 : @__run_exit_handlers+89    :   b                        : IntAlu : Predicated False
3275500: system.cpu T0 : @__run_exit_handlers+91    :   mov   r0, r4             : IntAlu :  D=0x0000000000000001
3276500: system.cpu T0 : @__run_exit_handlers+93    :   bl.w                     : IntAlu :  D=0x000000000000908f
3277000: system.cpu T0 : @strchrnul+155    : ldmstm                    
3277000: system.cpu T0 : @strchrnul+155.0  :   str_uop   lr, [sp, #4]   : MemWrite :  D=0x000000000000908f A=0xbefffdcc
3277500: system.cpu T0 : @strchrnul+155.1  :   subi_uop   sp, sp, #4    : IntAlu :  D=0x00000000befffdcc
3278500: system.cpu T0 : @_Exit+1    :   mrc.w   r2, r276, #406593 : IntAlu :  D=0x000000000006c4c0
3279000: system.cpu T0 : @_Exit+5    :   ldr   r4, [pc, #72]      : MemRead :  D=0x0000000000058a72 A=0x105e8
3279500: system.cpu T0 : @_Exit+7    :   mov   r3, r0             : IntAlu :  D=0x0000000000000001
3280000: system.cpu T0 : @_Exit+9    :   ldr   r1, [pc, #72]      : MemRead :  D=0x0000000000058a5e A=0x105ec
3280500: system.cpu T0 : @_Exit+11    :   b                        : IntAlu : 
3281000: system.cpu T0 : @_Exit+23    :   mov   r0, r3             : IntAlu :  D=0x0000000000000001
3282000: system.cpu T0 : @_Exit+25    :   mov.w   r12, #248        : IntAlu :  D=0x00000000000000f8
3283000: system.cpu T0 : @_Exit+29    :   bl.w                     : IntAlu :  D=0x00000000000105bb
3283500: system.cpu T0 : @__libc_csu_fini+47    : ldmstm                    
3283500: system.cpu T0 : @__libc_csu_fini+47.0  :   str_uop   r7, [sp, #8]   : MemWrite :  D=0x0000000000000001 A=0xbefffdc4
3284000: system.cpu T0 : @__libc_csu_fini+47.1  :   str_uop   lr, [sp, #4]   : MemWrite :  D=0x00000000000105bb A=0xbefffdc8
3284500: system.cpu T0 : @__libc_csu_fini+47.2  :   subi_uop   sp, sp, #8    : IntAlu :  D=0x00000000befffdc4
3285000: system.cpu T0 : @__libc_do_syscall+1    :   mov   r7, r12            : IntAlu :  D=0x00000000000000f8
3285500: system.cpu T0 : @__libc_do_syscall+3    :   svc   #0                 : IntAlu : 
Exiting @ tick 3285500 because exiting with last active thread context
